/*--------------------------------*- C++ -*----------------------------------*\
| =========                 |                                                 |
| \\      /  F ield         | foam-extend: Open Source CFD                    |
|  \\    /   O peration     | Version:     5.0                                |
|   \\  /    A nd           | Web:         http://www.foam-extend.org         |
|    \\/     M anipulation  |                                                 |
\*---------------------------------------------------------------------------*/
FoamFile
{
    version     2.0;
    format      ascii;
    class       polyBoundaryMesh;
    location    "constant/polyMesh";
    object      boundary;
}
// * * * * * * * * * * * * * * * * * * * * * * * * * * * * * * * * * * * * * //

7
(
    outsideSurface
    {
        type            patch;
        nFaces          11436;
        startFace       142600;
    }
    lithiumInterface
    {
        type            regionCouple;
        nFaces          2464;
        startFace       154036;
        shadowRegion    region0;
        shadowPatch     liquidToLithiumInterface;
        zone            lithiumInterfaceZone;
        attached        off;
        master          off;
        isWall          off;
        bridgeOverlap   off;
    }
    steelInterface
    {
        type            regionCouple;
        nFaces          8496;
        startFace       156500;
        shadowRegion    region0;
        shadowPatch     liquidToSteelInterface;
        zone            steelInterfaceZone;
        attached        off;
        master          off;
        isWall          off;
        bridgeOverlap   off;
    }
    topLithium
    {
        type            patch;
        nFaces          780;
        startFace       164996;
    }
    topSurface
    {
        type            patch;
        nFaces          640;
        startFace       165776;
    }
    outerAttachmentPoint
    {
        type            patch;
        nFaces          4;
        startFace       166416;
    }
    topAttachmentPoint
    {
        type            patch;
        nFaces          4;
        startFace       166420;
    }
)


// ************************************************************************* //
