/*--------------------------------*- C++ -*----------------------------------*\
| =========                 |                                                 |
| \\      /  F ield         | foam-extend: Open Source CFD                    |
|  \\    /   O peration     | Version:     5.0                                |
|   \\  /    A nd           | Web:         http://www.foam-extend.org         |
|    \\/     M anipulation  |                                                 |
\*---------------------------------------------------------------------------*/
FoamFile
{
    version     2.0;
    format      ascii;
    class       polyBoundaryMesh;
    location    "constant/polyMesh";
    object      boundary;
}
// * * * * * * * * * * * * * * * * * * * * * * * * * * * * * * * * * * * * * //

7
(
    outsideSurface
    {
        type            patch;
<<<<<<< HEAD
        nFaces          9648;
        startFace       111016;
=======
        nFaces          14076;
        startFace       177275;
>>>>>>> tmp
    }
    lithiumInterface
    {
        type            regionCouple;
<<<<<<< HEAD
        nFaces          1804;
        startFace       120664;
=======
        nFaces          2889;
        startFace       191351;
>>>>>>> tmp
        shadowRegion    region0;
        shadowPatch     liquidToLithiumInterface;
        zone            lithiumInterfaceZone;
        attached        off;
        master          off;
        isWall          off;
        bridgeOverlap   off;
    }
    steelInterface
    {
        type            regionCouple;
<<<<<<< HEAD
        nFaces          6900;
        startFace       122468;
=======
        nFaces          10656;
        startFace       194240;
>>>>>>> tmp
        shadowRegion    region0;
        shadowPatch     liquidToSteelInterface;
        zone            steelInterfaceZone;
        attached        off;
        master          off;
        isWall          off;
        bridgeOverlap   off;
    }
    topLithium
    {
        type            patch;
<<<<<<< HEAD
        nFaces          480;
        startFace       129368;
=======
        nFaces          728;
        startFace       204896;
>>>>>>> tmp
    }
    topSurface
    {
        type            patch;
<<<<<<< HEAD
        nFaces          544;
        startFace       129848;
=======
        nFaces          640;
        startFace       205624;
>>>>>>> tmp
    }
    outerAttachmentPoint
    {
        type            patch;
        nFaces          4;
<<<<<<< HEAD
        startFace       130392;
=======
        startFace       206264;
>>>>>>> tmp
    }
    topAttachmentPoint
    {
        type            patch;
<<<<<<< HEAD
        nFaces          4;
        startFace       130396;
=======
        nFaces          1;
        startFace       206268;
>>>>>>> tmp
    }
)


// ************************************************************************* //
