/*--------------------------------*- C++ -*----------------------------------*\
| =========                 |                                                 |
| \\      /  F ield         | foam-extend: Open Source CFD                    |
|  \\    /   O peration     | Version:     5.0                                |
|   \\  /    A nd           | Web:         http://www.foam-extend.org         |
|    \\/     M anipulation  | For copyright notice see file Copyright         |
\*---------------------------------------------------------------------------*/
FoamFile
{
    version     2.0;
    format      ascii;
    class       dictionary;
    location    "system";
    object      fvSchemes;
}
// * * * * * * * * * * * * * * * * * * * * * * * * * * * * * * * * * * * * * //

ddtSchemes
{
    default Euler;
}

gradSchemes
{
    default Gauss linear;
    grad(pd) interfaceGauss linear;
    snGradCorr(pd) interfaceGauss linear;
}

divSchemes
{
    div(phi,U) Gauss linearUpwindV grad(U);
    div(phi,alpha) Gauss vanLeer01;
    div(phirb,alpha) Gauss vofCompression;
    div(((rho*nuEff)*dev2(T(grad(U))))) Gauss linear;
    div(phi,k) Gauss upwind;
    div(phi,epsilon) Gauss upwind;
    div((U^Bext)) Gauss linear;
}

laplacianSchemes
{
    default none;// Gauss linear corrected;
    laplacian(nuEff,U) Gauss linear corrected;
    laplacian(rAU,pd) interfaceGauss linear interfaceCorrected;

    laplacian(DepsilonEff,epsilon) Gauss linear corrected;
    laplacian(DkEff,k) Gauss linear corrected;

    laplacian(conductivity,Voltage) Gauss linear corrected;
}

interpolationSchemes
{
    default linear;
}

snGradSchemes
{
    default corrected;
    snGrad(pd) interfaceCorrected;
}

// ************************************************************************* //
/*--------------------------------*- C++ -*----------------------------------*\
| =========                 |                                                 |
| \\      /  F ield         | foam-extend: Open Source CFD                    |
|  \\    /   O peration     | Version:     5.0                                |
|   \\  /    A nd           | Web:         http://www.foam-extend.org         |
|    \\/     M anipulation  | For copyright notice see file Copyright         |
\*---------------------------------------------------------------------------*/
FoamFile
{
    version     2.0;
    format      ascii;
    class       dictionary;
    location    "system";
    object      fvSolution;
}
// * * * * * * * * * * * * * * * * * * * * * * * * * * * * * * * * * * * * * //

solvers
{
    "p|pd|pdFinal"
    {
        solver            amgSolver;
        cycle             V-cycle;
//        policy            selectionAMG;
        policy            cluster;
        nPreSweeps        1;
        nPostSweeps       3;
        groupSize         8;
        minCoarseEqns     4;
        nMaxLevels        100;
        scale             on;
        smoother          ILUC0;

        minIter           1;
        maxIter           20;
        tolerance         1e-8;
        relTol            0.0;
    }
    "(U|UFinal)"
    {
        solver            BiCGStab;
        preconditioner    ILU0;

        minIter           1;
        maxIter           500;
        tolerance         1e-8;
        relTol            0.0;
    }
    "k|epsilon"
    {
        solver            BiCGStab;
        preconditioner    ILU0;

        minIter           1;
        maxIter           500;
        tolerance         1e-8;
        relTol            0.0;
    }
    Voltage_solidVoltage
    {
        solver            CG;
        preconditioner    Cholesky;
        minIter           0;
        maxIter           1000;
        tolerance         1e-6;
        relTol            0.0;
    }
}

PISO
{
    cAlpha          1;
}
PIMPLE
{
    nOuterCorrectors    4;
    nCorrectors         4;
    nNonOrthogonalCorrectors 0;
    pdRefCell 0;
    pdRefValue 0;
}

relaxationFactors
{
    equations
    {
        U 1; // 0.8
        UFinal 1;
        Voltage 0.9;
    }
    fields
    {
        pd       1;
    }
}

isoAdvector
{
    // Note: use full Crank-Nicolson when topo changes are not occuring,
    // otherwise the code resorts to Euler implicit
//    CrankNicolsonCoeff 0.5;

    // Euler implicit
    CrankNicolsonCoeff 1;

    gradAlphaNormal true;

    alphaFluxTolerance 1e-12; // 10*SMALL by default

    // Determines which cells are classified as surface cells
    vof2IsoTol         1e-8; // 1e-8 by default

    clipAlphaTol 1e-6;
    nAlphaBounds 0;
    snapAlpha   false; // true
    extrapolateVelocity yes;
    secondOrderExtrapolation no;
}

// ************************************************************************* //
/*---------------------------------------------------------------------------*\
| =========                 |                                                 |
| \\      /  F ield         | foam-extend: Open Source CFD                    |
|  \\    /   O peration     | Version:     5.0                                |
|   \\  /    A nd           | Web:         http://www.foam-extend.org         |
|    \\/     M anipulation  | For copyright notice see file Copyright         |
\*---------------------------------------------------------------------------*/
Build  : 5.0-73c2a3d539c2
Exec   : conjugateLmbFoam
Date   : Jul 11 2023
Time   : 16:43:22
Host   : "ojm40-OMEN"
PID    : 420656
CtrlDict : "/home/ojm40/foam/ojm40-5.0/work/liquidMetalBattery/run/conjugateBattery/system/controlDict"
Case   : /home/ojm40/foam/ojm40-5.0/work/liquidMetalBattery/run/conjugateBattery
nProcs : 1
sigFpe : Enabling floating point exception trapping (FOAM_SIGFPE).
allowSystemOperations : Disallowing user-supplied system call operations

// * * * * * * * * * * * * * * * * * * * * * * * * * * * * * * * * * * * * * //
Create time

Create dynamic mesh for time = 0

--> FOAM Warning : 
    From function void* Foam::dlOpen(const Foam::fileName&, bool)
    in file POSIX.C at line 1204
    dlopen error : libmesquiteMotionSolver.so: cannot open shared object file: No such file or directory
--> FOAM Warning : 
    From function bool Foam::dlLibraryTable::open(const Foam::fileName&, bool)
    in file db/dynamicLibrary/dlLibraryTable/dlLibraryTable.C at line 97
    could not load "libmesquiteMotionSolver.so"
--> FOAM Warning : 
    From function dynamicFvMesh::New(const IOobject& io)
    in file dynamicFvMesh/newDynamicFvMesh.C at line 46
    Loading of dynamic mesh library libmesquiteMotionSolver.so unsuccesful. Some dynamic mesh  methods may not be  available
Selecting dynamicFvMesh staticFvMesh
Initializing the region couple interpolator between master/shadow patches: liquidToLithiumInterface and lithiumInterface on region solid
Initializing the region couple interpolator between master/shadow patches: liquidToSteelInterface and steelInterface on region solid

PIMPLE: no residual control data found. Calculations will employ 4 corrector loops


SIMPLE: no convergence criteria found. Calculations will run for 10 steps.


Reading g
Reading field pd

Reading field alpha1

Reading field U

Reading/calculating face flux field phi

Reading transportProperties

Selecting incompressible transport model Newtonian
Selecting incompressible transport model Newtonian
Calculating field g.h

Reading field p

Selecting turbulence model type RASModel
Selecting RAS turbulence model kEpsilon
kEpsilonCoeffs
{
    Cmu             0.09;
    C1              1.44;
    C2              1.92;
    sigmaEps        1.3;
}

Number of internal interface faces: 2400
Smoothing alpha field 1 times for curvature calculation.
amgSolver:  Solving for pd, Initial residual = 1, Final residual = 0.00028304546, No Iterations 20
Reading field solidVoltage

Reading field solidConductivity

Reading field Voltage

Reading field conductivity

Courant Number mean: 4.9641784e-05 max: 0.00075964865 velocity magnitude: 0.00061323755
--> FOAM Warning : 
    From function void forces::read(const dictionary& dict)
    in file forces/forces.C at line 277
    Could not find U, p or rho in database.
    De-activating forces.
Creating minMaxField for field pd
Creating minMaxField for field U
Creating minMaxField for field alpha1
Creating minMaxField for field k
Creating minMaxField for field nut
Creating minMaxField for field pd
Creating minMaxField for field solidVoltage

Starting time loop

Volume: new = 0.0009418 old = 0.0009418 change = 0 ratio = 0
Courant Number mean: 4.9641784e-05 max: 0.00075964865 velocity magnitude: 0.00061323755
Interface Courant Number mean: 0 max: 0.00035013481
deltaT = 0.0012
Time = 0.0012

PIMPLE: iteration 1
CG:  Solving for Voltage_solidVoltage, Initial residual = 1, Final residual = 8.1069137e-07, No Iterations 26
Mesh Courant Number mean: 0 max: 0
BiCGStab:  Solving for Ux, Initial residual = 1, Final residual = 4.6541188e-09, No Iterations 17
BiCGStab:  Solving for Uy, Initial residual = 1, Final residual = 6.4961691e-09, No Iterations 17
BiCGStab:  Solving for Uz, Initial residual = 1, Final residual = 7.9450034e-09, No Iterations 18
amgSolver:  Solving for pd, Initial residual = 0.0027623118, Final residual = 6.1533765e-05, No Iterations 20
Updating old interface data for additonal non orthogonal/PISO correctors.
time step continuity errors : sum local = 1.5760069e-07, global = -6.7823718e-08, cumulative = -6.7823718e-08
amgSolver:  Solving for pd, Initial residual = 0.0023255263, Final residual = 4.9144176e-05, No Iterations 20
time step continuity errors : sum local = 1.4012517e-07, global = 6.0306033e-08, cumulative = -7.5176852e-09
amgSolver:  Solving for pd, Initial residual = 0.00041214785, Final residual = 4.8907615e-06, No Iterations 20
time step continuity errors : sum local = 1.2662196e-08, global = 5.4484742e-09, cumulative = -2.069211e-09
amgSolver:  Solving for pd, Initial residual = 0.0001829935, Final residual = 1.2149587e-06, No Iterations 20
time step continuity errors : sum local = 3.1155432e-09, global = -1.3408454e-09, cumulative = -3.4100564e-09
Setting up velocity and flux fields for isoAdvector.
Number of isoAdvector surface cells = 0
Restoring velocity and flux fields after isoAdvector.
Liquid phase volume fraction = 0.72958532  Min(alpha1) = 0  Max(alpha1) = 1
Number of internal interface faces: 2400
Smoothing alpha field 1 times for curvature calculation.
BiCGStab:  Solving for epsilon, Initial residual = 0.74465009, Final residual = 9.6933858e-09, No Iterations 10
BiCGStab:  Solving for k, Initial residual = 1, Final residual = 8.9197863e-09, No Iterations 15
PIMPLE: iteration 2
CG:  Solving for Voltage_solidVoltage, Initial residual = 0.014038173, Final residual = 5.6110844e-07, No Iterations 22
Mesh Courant Number mean: 0 max: 0
BiCGStab:  Solving for Ux, Initial residual = 0.6315176, Final residual = 7.527049e-09, No Iterations 3
BiCGStab:  Solving for Uy, Initial residual = 0.63003911, Final residual = 9.3407821e-09, No Iterations 3
BiCGStab:  Solving for Uz, Initial residual = 0.38790977, Final residual = 6.9637315e-09, No Iterations 3
amgSolver:  Solving for pd, Initial residual = 0.00060386221, Final residual = 6.2301705e-08, No Iterations 20
Updating old interface data for additonal non orthogonal/PISO correctors.
time step continuity errors : sum local = 2.6028059e-09, global = 7.8974761e-10, cumulative = -2.6203088e-09
amgSolver:  Solving for pd, Initial residual = 3.2888836e-05, Final residual = 8.5663504e-09, No Iterations 20
time step continuity errors : sum local = 3.5774515e-10, global = -1.1219368e-10, cumulative = -2.7325025e-09
amgSolver:  Solving for pd, Initial residual = 2.6837139e-06, Final residual = 8.2283838e-09, No Iterations 14
time step continuity errors : sum local = 3.4363292e-10, global = -1.1166698e-10, cumulative = -2.8441694e-09
amgSolver:  Solving for pd, Initial residual = 7.1645501e-07, Final residual = 8.087665e-09, No Iterations 10
time step continuity errors : sum local = 3.3775797e-10, global = -1.0953935e-10, cumulative = -2.9537088e-09
Setting up velocity and flux fields for isoAdvector.
Number of isoAdvector surface cells = 0
Restoring velocity and flux fields after isoAdvector.
Liquid phase volume fraction = 0.72958532  Min(alpha1) = 0  Max(alpha1) = 1
Number of internal interface faces: 2400
Smoothing alpha field 1 times for curvature calculation.
BiCGStab:  Solving for epsilon, Initial residual = 0.31909713, Final residual = 1.5290089e-10, No Iterations 3
BiCGStab:  Solving for k, Initial residual = 0.35758422, Final residual = 4.6979534e-09, No Iterations 3
PIMPLE: iteration 3
CG:  Solving for Voltage_solidVoltage, Initial residual = 0.017194172, Final residual = 4.3586934e-07, No Iterations 24
Mesh Courant Number mean: 0 max: 0
BiCGStab:  Solving for Ux, Initial residual = 0.79277404, Final residual = 6.8195268e-09, No Iterations 14
BiCGStab:  Solving for Uy, Initial residual = 0.7897105, Final residual = 4.5254242e-09, No Iterations 14
BiCGStab:  Solving for Uz, Initial residual = 0.79854366, Final residual = 5.6662911e-09, No Iterations 14
amgSolver:  Solving for pd, Initial residual = 0.001531043, Final residual = 2.9131668e-07, No Iterations 20
Updating old interface data for additonal non orthogonal/PISO correctors.
time step continuity errors : sum local = 1.1614008e-09, global = -4.6012948e-10, cumulative = -3.4138383e-09
amgSolver:  Solving for pd, Initial residual = 0.00026787281, Final residual = 4.8347045e-08, No Iterations 20
time step continuity errors : sum local = 1.9318893e-10, global = -7.7691704e-11, cumulative = -3.49153e-09
amgSolver:  Solving for pd, Initial residual = 9.5663105e-05, Final residual = 5.0271549e-08, No Iterations 20
time step continuity errors : sum local = 2.0087717e-10, global = 8.0492184e-11, cumulative = -3.4110378e-09
amgSolver:  Solving for pd, Initial residual = 3.7177397e-05, Final residual = 2.1252264e-08, No Iterations 20
time step continuity errors : sum local = 8.4904186e-11, global = 3.592909e-11, cumulative = -3.3751087e-09
Setting up velocity and flux fields for isoAdvector.
Number of isoAdvector surface cells = 0
Restoring velocity and flux fields after isoAdvector.
Liquid phase volume fraction = 0.72958533  Min(alpha1) = 0  Max(alpha1) = 1
Number of internal interface faces: 2400
Smoothing alpha field 1 times for curvature calculation.
BiCGStab:  Solving for epsilon, Initial residual = 0.20331618, Final residual = 5.5084885e-09, No Iterations 14
BiCGStab:  Solving for k, Initial residual = 0.37270043, Final residual = 5.2656864e-09, No Iterations 16
PIMPLE: iteration 4
CG:  Solving for Voltage_solidVoltage, Initial residual = 0.023614954, Final residual = 8.0481592e-07, No Iterations 25
Mesh Courant Number mean: 0 max: 0
BiCGStab:  Solving for Ux, Initial residual = 0.81078226, Final residual = 3.3549583e-09, No Iterations 5
BiCGStab:  Solving for Uy, Initial residual = 0.81415398, Final residual = 3.3836883e-09, No Iterations 5
BiCGStab:  Solving for Uz, Initial residual = 0.56101601, Final residual = 1.9719897e-09, No Iterations 5
amgSolver:  Solving for pd, Initial residual = 0.0016169532, Final residual = 4.1853029e-07, No Iterations 20
Updating old interface data for additonal non orthogonal/PISO correctors.
time step continuity errors : sum local = 9.336927e-09, global = 2.9041472e-09, cumulative = -4.7096149e-10
amgSolver:  Solving for pd, Initial residual = 0.00022673107, Final residual = 7.4071802e-08, No Iterations 20
time step continuity errors : sum local = 1.6492169e-09, global = -5.1203886e-10, cumulative = -9.8300034e-10
amgSolver:  Solving for pd, Initial residual = 2.9362562e-05, Final residual = 4.0194161e-08, No Iterations 20
time step continuity errors : sum local = 8.9490386e-10, global = -2.7868767e-10, cumulative = -1.261688e-09
amgSolver:  Solving for pd, Initial residual = 8.4082645e-06, Final residual = 1.6928184e-08, No Iterations 20
time step continuity errors : sum local = 3.7691991e-10, global = -1.2033351e-10, cumulative = -1.3820215e-09
Setting up velocity and flux fields for isoAdvector.
Number of isoAdvector surface cells = 0
Restoring velocity and flux fields after isoAdvector.
Liquid phase volume fraction = 0.72958532  Min(alpha1) = 0  Max(alpha1) = 1
Number of internal interface faces: 2400
Smoothing alpha field 1 times for curvature calculation.
BiCGStab:  Solving for epsilon, Initial residual = 0.10564793, Final residual = 8.2427874e-10, No Iterations 4
BiCGStab:  Solving for k, Initial residual = 0.23594757, Final residual = 3.2240802e-10, No Iterations 5
ExecutionTime = 2.91 s  ClockTime = 3 s

Field pd min = -4.0019636 (-4.0019636) max = 2102.2222 (2102.2222)
Field U magnitude min = 0 (1.9107781e-08) max = 0.0037332021 (0.0037332021)
Field alpha1 min = 0 (0) max = 1 (1)
Field k min = 0.073113154 (0.073113154) max = 0.1 (0.099884057)
Field nut min = 2.3275207e-06 (1.671274e-05) max = 0.0095706065 (0.0095706065)
Field pd min = -4.0019636 (-4.0019636) max = 2102.2222 (2102.2222)
Field solidVoltage min = -0.7 (-0.6559477) max = 1.0653771 (0.50762975)
Volume: new = 0.0009418 old = 0.0009418 change = 0 ratio = 0
Courant Number mean: 1.3053295e-05 max: 0.006727864 velocity magnitude: 0.0055587411
Interface Courant Number mean: 0 max: 0.006727864
deltaT = 0.00144
Time = 0.00264

PIMPLE: iteration 1
CG:  Solving for Voltage_solidVoltage, Initial residual = 0.043845485, Final residual = 8.9004748e-07, No Iterations 26
Mesh Courant Number mean: 0 max: 0
BiCGStab:  Solving for Ux, Initial residual = 0.54124457, Final residual = 6.4555458e-09, No Iterations 13
BiCGStab:  Solving for Uy, Initial residual = 0.51903636, Final residual = 4.7046374e-09, No Iterations 14
BiCGStab:  Solving for Uz, Initial residual = 0.44715262, Final residual = 7.2317639e-09, No Iterations 14
amgSolver:  Solving for pd, Initial residual = 0.0016686769, Final residual = 9.222181e-07, No Iterations 20
Updating old interface data for additonal non orthogonal/PISO correctors.
time step continuity errors : sum local = 6.6229665e-09, global = -1.8716196e-09, cumulative = -3.2536412e-09
amgSolver:  Solving for pd, Initial residual = 0.00022105084, Final residual = 2.6894115e-07, No Iterations 20
time step continuity errors : sum local = 1.939306e-09, global = 5.4700486e-10, cumulative = -2.7066363e-09
amgSolver:  Solving for pd, Initial residual = 6.3399187e-05, Final residual = 1.3702571e-07, No Iterations 20
time step continuity errors : sum local = 9.8744282e-10, global = 2.7941268e-10, cumulative = -2.4272236e-09
amgSolver:  Solving for pd, Initial residual = 3.2143883e-05, Final residual = 6.2424126e-08, No Iterations 20
time step continuity errors : sum local = 4.4969063e-10, global = 1.2846104e-10, cumulative = -2.2987626e-09
Setting up velocity and flux fields for isoAdvector.
Number of isoAdvector surface cells = 2400
Restoring velocity and flux fields after isoAdvector.
Liquid phase volume fraction = 0.72958532  Min(alpha1) = 0  Max(alpha1) = 1
Number of internal interface faces: 2400
Smoothing alpha field 1 times for curvature calculation.
BiCGStab:  Solving for epsilon, Initial residual = 0.058141702, Final residual = 4.8050418e-09, No Iterations 11
BiCGStab:  Solving for k, Initial residual = 0.24188289, Final residual = 3.6847778e-09, No Iterations 13
PIMPLE: iteration 2
CG:  Solving for Voltage_solidVoltage, Initial residual = 0.046161174, Final residual = 7.269825e-07, No Iterations 25
Mesh Courant Number mean: 0 max: 0
BiCGStab:  Solving for Ux, Initial residual = 0.62704974, Final residual = 2.0704745e-09, No Iterations 8
BiCGStab:  Solving for Uy, Initial residual = 0.67895404, Final residual = 2.0116918e-09, No Iterations 8
BiCGStab:  Solving for Uz, Initial residual = 0.33361, Final residual = 4.2287997e-09, No Iterations 7
amgSolver:  Solving for pd, Initial residual = 0.00087179582, Final residual = 9.6072633e-07, No Iterations 20
Updating old interface data for additonal non orthogonal/PISO correctors.
time step continuity errors : sum local = 1.5115791e-08, global = 4.5666335e-09, cumulative = 2.2678709e-09
amgSolver:  Solving for pd, Initial residual = 0.0003162604, Final residual = 5.8649347e-07, No Iterations 20
time step continuity errors : sum local = 9.2028492e-09, global = -2.7772199e-09, cumulative = -5.0934904e-10
amgSolver:  Solving for pd, Initial residual = 5.1561195e-05, Final residual = 1.0158708e-07, No Iterations 20
time step continuity errors : sum local = 1.5959024e-09, global = -4.8297671e-10, cumulative = -9.9232575e-10
amgSolver:  Solving for pd, Initial residual = 1.6184001e-05, Final residual = 2.6305563e-08, No Iterations 20
time step continuity errors : sum local = 4.1335327e-10, global = -1.2817404e-10, cumulative = -1.1204998e-09
Setting up velocity and flux fields for isoAdvector.
Number of isoAdvector surface cells = 2400
Restoring velocity and flux fields after isoAdvector.
Liquid phase volume fraction = 0.72958531  Min(alpha1) = 0  Max(alpha1) = 1
Number of internal interface faces: 2400
Smoothing alpha field 1 times for curvature calculation.
BiCGStab:  Solving for epsilon, Initial residual = 0.042053087, Final residual = 3.8117823e-09, No Iterations 5
BiCGStab:  Solving for k, Initial residual = 0.056704181, Final residual = 2.4673931e-09, No Iterations 6
PIMPLE: iteration 3
CG:  Solving for Voltage_solidVoltage, Initial residual = 0.071635662, Final residual = 8.8167342e-07, No Iterations 23
Mesh Courant Number mean: 0 max: 0
BiCGStab:  Solving for Ux, Initial residual = 0.66142208, Final residual = 8.6969285e-09, No Iterations 10
BiCGStab:  Solving for Uy, Initial residual = 0.66682978, Final residual = 6.8470986e-09, No Iterations 10
BiCGStab:  Solving for Uz, Initial residual = 0.19720336, Final residual = 5.5958197e-09, No Iterations 11
amgSolver:  Solving for pd, Initial residual = 0.00047356132, Final residual = 4.6807518e-07, No Iterations 20
Updating old interface data for additonal non orthogonal/PISO correctors.
time step continuity errors : sum local = 4.7789176e-09, global = -1.0729946e-09, cumulative = -2.1934944e-09
amgSolver:  Solving for pd, Initial residual = 0.00022547053, Final residual = 2.8467452e-07, No Iterations 20
time step continuity errors : sum local = 2.9109521e-09, global = 6.5299103e-10, cumulative = -1.5405033e-09
amgSolver:  Solving for pd, Initial residual = 3.6797288e-05, Final residual = 5.6296097e-08, No Iterations 20
time step continuity errors : sum local = 5.7509032e-10, global = 1.3039487e-10, cumulative = -1.4101085e-09
amgSolver:  Solving for pd, Initial residual = 1.4019456e-05, Final residual = 1.7090645e-08, No Iterations 20
time step continuity errors : sum local = 1.7455679e-10, global = 4.3630588e-11, cumulative = -1.3664779e-09
Setting up velocity and flux fields for isoAdvector.
Number of isoAdvector surface cells = 2400
Restoring velocity and flux fields after isoAdvector.
Liquid phase volume fraction = 0.72958531  Min(alpha1) = 0  Max(alpha1) = 1
Number of internal interface faces: 2400
Smoothing alpha field 1 times for curvature calculation.
BiCGStab:  Solving for epsilon, Initial residual = 0.012631556, Final residual = 1.5414233e-09, No Iterations 8
BiCGStab:  Solving for k, Initial residual = 0.02382754, Final residual = 2.4449717e-09, No Iterations 9
PIMPLE: iteration 4
CG:  Solving for Voltage_solidVoltage, Initial residual = 0.16485278, Final residual = 6.9969552e-07, No Iterations 22
Mesh Courant Number mean: 0 max: 0
BiCGStab:  Solving for Ux, Initial residual = 0.89800338, Final residual = 1.8348969e-09, No Iterations 8
BiCGStab:  Solving for Uy, Initial residual = 0.89357224, Final residual = 2.4937546e-09, No Iterations 8
BiCGStab:  Solving for Uz, Initial residual = 0.11233071, Final residual = 5.2574666e-09, No Iterations 9
amgSolver:  Solving for pd, Initial residual = 0.0015733866, Final residual = 3.2025942e-07, No Iterations 20
Updating old interface data for additonal non orthogonal/PISO correctors.
time step continuity errors : sum local = 3.6064095e-09, global = 1.0102388e-09, cumulative = -3.5623907e-10
amgSolver:  Solving for pd, Initial residual = 0.00020250678, Final residual = 1.9405123e-07, No Iterations 20
time step continuity errors : sum local = 2.1847876e-09, global = -6.1179942e-10, cumulative = -9.6803849e-10
amgSolver:  Solving for pd, Initial residual = 4.6622949e-05, Final residual = 3.8282047e-08, No Iterations 20
time step continuity errors : sum local = 4.3124894e-10, global = -1.2262401e-10, cumulative = -1.0906625e-09
amgSolver:  Solving for pd, Initial residual = 2.2224861e-05, Final residual = 1.2146097e-08, No Iterations 20
time step continuity errors : sum local = 1.3684344e-10, global = -4.3975781e-11, cumulative = -1.1346383e-09
Setting up velocity and flux fields for isoAdvector.
Number of isoAdvector surface cells = 2400
Restoring velocity and flux fields after isoAdvector.
Liquid phase volume fraction = 0.72958534  Min(alpha1) = 0  Max(alpha1) = 1
Number of internal interface faces: 2400
Smoothing alpha field 1 times for curvature calculation.
BiCGStab:  Solving for epsilon, Initial residual = 0.0065135322, Final residual = 9.7680931e-09, No Iterations 5
BiCGStab:  Solving for k, Initial residual = 0.0099133308, Final residual = 1.5636954e-09, No Iterations 7
ExecutionTime = 5.44 s  ClockTime = 6 s

Field pd min = -11.293528 (-11.293528) max = 2132.5096 (2132.5096)
Field U magnitude min = 0 (3.7291313e-08) max = 0.11349026 (0.11349026)
Field alpha1 min = 0 (0) max = 1 (1)
Field k min = 0.053345295 (0.053345295) max = 0.1 (0.099673391)
Field nut min = 2.0177062e-06 (1.8085822e-05) max = 0.0085381856 (0.0085381856)
Field pd min = -11.293528 (-11.293528) max = 2132.5096 (2132.5096)
Field solidVoltage min = -27.617325 (-11.485476) max = 46.863493 (22.271661)
Volume: new = 0.0009418 old = 0.0009418 change = 0 ratio = 0
Courant Number mean: 4.0677324e-05 max: 0.011216238 velocity magnitude: 0.0165085
Interface Courant Number mean: 0 max: 0.011216238
deltaT = 0.001728
Time = 0.004368

PIMPLE: iteration 1
CG:  Solving for Voltage_solidVoltage, Initial residual = 0.33328897, Final residual = 4.5586088e-07, No Iterations 23
Mesh Courant Number mean: 0 max: 0
BiCGStab:  Solving for Ux, Initial residual = 0.90956278, Final residual = 2.5272501e-09, No Iterations 9
BiCGStab:  Solving for Uy, Initial residual = 0.90579883, Final residual = 7.9441484e-09, No Iterations 8
BiCGStab:  Solving for Uz, Initial residual = 0.25984607, Final residual = 2.1481439e-09, No Iterations 10
amgSolver:  Solving for pd, Initial residual = 0.035258316, Final residual = 2.6062056e-07, No Iterations 20
Updating old interface data for additonal non orthogonal/PISO correctors.
time step continuity errors : sum local = 3.8131035e-09, global = -1.0334478e-09, cumulative = -2.1680861e-09
amgSolver:  Solving for pd, Initial residual = 0.0017099169, Final residual = 1.4898731e-07, No Iterations 20
time step continuity errors : sum local = 2.2379128e-09, global = 6.0636395e-10, cumulative = -1.5617222e-09
amgSolver:  Solving for pd, Initial residual = 0.0006843249, Final residual = 3.2052126e-08, No Iterations 20
time step continuity errors : sum local = 4.8128596e-10, global = 1.3267382e-10, cumulative = -1.4290484e-09
amgSolver:  Solving for pd, Initial residual = 0.00038732174, Final residual = 9.9286694e-09, No Iterations 20
time step continuity errors : sum local = 1.4907258e-10, global = 4.7578998e-11, cumulative = -1.3814694e-09
Setting up velocity and flux fields for isoAdvector.
Number of isoAdvector surface cells = 3245
Restoring velocity and flux fields after isoAdvector.
Liquid phase volume fraction = 0.72958607  Min(alpha1) = 0  Max(alpha1) = 1
Number of internal interface faces: 2400
Smoothing alpha field 1 times for curvature calculation.
BiCGStab:  Solving for epsilon, Initial residual = 0.040813456, Final residual = 3.6800937e-09, No Iterations 8
BiCGStab:  Solving for k, Initial residual = 0.18437483, Final residual = 3.9425072e-09, No Iterations 10
PIMPLE: iteration 2
CG:  Solving for Voltage_solidVoltage, Initial residual = 0.49802347, Final residual = 6.198394e-07, No Iterations 21
Mesh Courant Number mean: 0 max: 0
BiCGStab:  Solving for Ux, Initial residual = 0.93861903, Final residual = 4.2176918e-09, No Iterations 7
BiCGStab:  Solving for Uy, Initial residual = 0.93820718, Final residual = 5.9613473e-09, No Iterations 7
BiCGStab:  Solving for Uz, Initial residual = 0.39312649, Final residual = 8.4968104e-10, No Iterations 8
amgSolver:  Solving for pd, Initial residual = 0.36428365, Final residual = 3.9881584e-07, No Iterations 20
Updating old interface data for additonal non orthogonal/PISO correctors.
time step continuity errors : sum local = 1.2307153e-08, global = -3.3341484e-09, cumulative = -4.7156178e-09
amgSolver:  Solving for pd, Initial residual = 0.019390562, Final residual = 2.6641796e-07, No Iterations 20
time step continuity errors : sum local = 1.1023413e-08, global = 3.021206e-09, cumulative = -1.6944118e-09
amgSolver:  Solving for pd, Initial residual = 0.006369616, Final residual = 7.5782441e-08, No Iterations 20
time step continuity errors : sum local = 3.1164024e-09, global = 8.5895436e-10, cumulative = -8.3545743e-10
amgSolver:  Solving for pd, Initial residual = 0.0034995597, Final residual = 8.3489451e-09, No Iterations 18
time step continuity errors : sum local = 3.4273036e-10, global = 1.8525931e-11, cumulative = -8.169315e-10
Setting up velocity and flux fields for isoAdvector.
Number of isoAdvector surface cells = 3245
Restoring velocity and flux fields after isoAdvector.
Liquid phase volume fraction = 0.7296617  Min(alpha1) = 0  Max(alpha1) = 1
Number of internal interface faces: 2488
Smoothing alpha field 1 times for curvature calculation.
BiCGStab:  Solving for epsilon, Initial residual = 0.70627265, Final residual = 1.6104233e-09, No Iterations 8
BiCGStab:  Solving for k, Initial residual = 0.91380398, Final residual = 9.4593032e-09, No Iterations 8
PIMPLE: iteration 3