/*--------------------------------*- C++ -*----------------------------------*\
| =========                 |                                                 |
| \\      /  F ield         | foam-extend: Open Source CFD                    |
|  \\    /   O peration     | Version:     5.0                                |
|   \\  /    A nd           | Web:         http://www.foam-extend.org         |
|    \\/     M anipulation  | For copyright notice see file Copyright         |
\*---------------------------------------------------------------------------*/
FoamFile
{
    version     2.0;
    format      ascii;
    class       dictionary;
    object      fvSchemes;
}
// * * * * * * * * * * * * * * * * * * * * * * * * * * * * * * * * * * * * * //

ddtSchemes
{
    default Euler;
}

gradSchemes
{
    default         Gauss linear;
    grad(p)         Gauss linear;
    grad((DBU*magSqr(B))) Gauss linear;
}

divSchemes
{
    default         none;
    div(phi,U)      Gauss linear;
    div(phiB,U)     Gauss linear;
    div(phi,B)      Gauss linear;
    div(phiB,((2*DBU)*B)) Gauss linear;
}

laplacianSchemes
{
    default         none;
    laplacian(nu,U) Gauss linear corrected;
    laplacian((1|A(U)),p) Gauss linear corrected;
    laplacian(DB,B) Gauss linear corrected;
    laplacian((1|A(B)),pB) Gauss linear corrected;
}

interpolationSchemes
{
    default         linear;
    interpolate(HbyA) linear;
    interpolate(B)  linear;
}

snGradSchemes
{
    default         corrected;
}

// ************************************************************************* //
/*--------------------------------*- C++ -*----------------------------------*\
| =========                 |                                                 |
| \\      /  F ield         | foam-extend: Open Source CFD                    |
|  \\    /   O peration     | Version:     5.0                                |
|   \\  /    A nd           | Web:         http://www.foam-extend.org         |
|    \\/     M anipulation  | For copyright notice see file Copyright         |
\*---------------------------------------------------------------------------*/
FoamFile
{
    version     2.0;
    format      ascii;
    class       dictionary;
    object      fvSolution;
}
// * * * * * * * * * * * * * * * * * * * * * * * * * * * * * * * * * * * * * //

solvers
{
    p
    {
        solver           CG;
        preconditioner   Cholesky;
        tolerance        1e-06;
        relTol           0;
    }
    U
    {
        solver           BiCGStab;
        preconditioner   DILU;
        tolerance        1e-05;
        relTol           0;
    }
    B
    {
        solver           BiCGStab;
        preconditioner   DILU;
        tolerance        1e-05;
        relTol           0;
    }
    pB
    {
        solver           CG;
        preconditioner   Cholesky;
        tolerance        1e-05;
        relTol           0;
    }
}

PISO
{
    nCorrectors     3;
    nNonOrthogonalCorrectors 0;
}

BPISO
{
    nCorrectors     3;
}

// ************************************************************************* //
/*---------------------------------------------------------------------------*\
| =========                 |                                                 |
| \\      /  F ield         | foam-extend: Open Source CFD                    |
|  \\    /   O peration     | Version:     5.0                                |
|   \\  /    A nd           | Web:         http://www.foam-extend.org         |
|    \\/     M anipulation  | For copyright notice see file Copyright         |
\*---------------------------------------------------------------------------*/
Build  : 5.0-73c2a3d539c2
Exec   : mhdFoam
Date   : Jul 05 2023
Time   : 14:49:51
Host   : "ojm40-OMEN"
PID    : 402727
CtrlDict : "/home/ojm40/foam/ojm40-5.0/work/liquidMetalBattery/run/hartmann/system/controlDict"
Case   : /home/ojm40/foam/ojm40-5.0/work/liquidMetalBattery/run/hartmann
nProcs : 1
sigFpe : Enabling floating point exception trapping (FOAM_SIGFPE).
allowSystemOperations : Disallowing user-supplied system call operations

// * * * * * * * * * * * * * * * * * * * * * * * * * * * * * * * * * * * * * //
Create time

Create mesh for time = 0


PISO: Operating solver in PISO mode

Reading transportProperties

Reading field p

Reading field U

Reading/calculating face flux field phi

Reading field pB

Reading field B

Calculating face flux


Starting time loop
Time = 0.005

Courant Number mean: 0 max: 0.05 velocity magnitude: 1
BiCGStab:  Solving for Ux, Initial residual = 1, Final residual = 7.04241e-08, No Iterations 3
BiCGStab:  Solving for Uy, Initial residual = 0, Final residual = 0, No Iterations 0
CholeskyCG:  Solving for p, Initial residual = 1, Final residual = 8.95496e-07, No Iterations 106
time step continuity errors : sum local = 2.23874e-10, global = -2.64698e-14, cumulative = -2.64698e-14
CholeskyCG:  Solving for p, Initial residual = 0.00385129, Final residual = 9.65339e-07, No Iterations 93
time step continuity errors : sum local = 4.9771e-08, global = -6.25143e-10, cumulative = -6.25169e-10
CholeskyCG:  Solving for p, Initial residual = 0.00297127, Final residual = 8.5436e-07, No Iterations 89
time step continuity errors : sum local = 9.39813e-09, global = -6.04461e-11, cumulative = -6.85615e-10
BiCGStab:  Solving for Bx, Initial residual = 1, Final residual = 2.95503e-06, No Iterations 2
BiCGStab:  Solving for By, Initial residual = 1, Final residual = 6.71424e-08, No Iterations 3
CholeskyCG:  Solving for pB, Initial residual = 1, Final residual = 9.79657e-06, No Iterations 48
magnetic flux divergence error = 1.597e-11
BiCGStab:  Solving for Bx, Initial residual = 2.18977e-05, Final residual = 4.7327e-08, No Iterations 1
BiCGStab:  Solving for By, Initial residual = 0.00150833, Final residual = 3.73977e-06, No Iterations 1
CholeskyCG:  Solving for pB, Initial residual = 0.00417451, Final residual = 9.58112e-06, No Iterations 15
magnetic flux divergence error = 3.1211e-11
BiCGStab:  Solving for Bx, Initial residual = 7.9779e-08, Final residual = 7.9779e-08, No Iterations 0
BiCGStab:  Solving for By, Initial residual = 4.05327e-06, Final residual = 4.05327e-06, No Iterations 0
CholeskyCG:  Solving for pB, Initial residual = 9.58926e-06, Final residual = 9.58926e-06, No Iterations 0
magnetic flux divergence error = 3.1211e-11
Time = 0.01

Courant Number mean: 0.00514497 max: 0.0522806 velocity magnitude: 1.07231
BiCGStab:  Solving for Ux, Initial residual = 0.673472, Final residual = 1.18969e-06, No Iterations 2
BiCGStab:  Solving for Uy, Initial residual = 0.427457, Final residual = 5.95348e-06, No Iterations 2
CholeskyCG:  Solving for p, Initial residual = 0.0241003, Final residual = 9.72429e-07, No Iterations 97
time step continuity errors : sum local = 1.04642e-08, global = -3.6562e-11, cumulative = -7.22177e-10
CholeskyCG:  Solving for p, Initial residual = 0.00489929, Final residual = 7.45889e-07, No Iterations 94
time step continuity errors : sum local = 2.93368e-08, global = -5.12475e-11, cumulative = -7.73425e-10
CholeskyCG:  Solving for p, Initial residual = 0.377811, Final residual = 9.94313e-07, No Iterations 100
time step continuity errors : sum local = 8.46356e-11, global = -2.65383e-13, cumulative = -7.7369e-10
BiCGStab:  Solving for Bx, Initial residual = 0.327374, Final residual = 8.88421e-07, No Iterations 2
BiCGStab:  Solving for By, Initial residual = 0.434518, Final residual = 6.8813e-06, No Iterations 2
CholeskyCG:  Solving for pB, Initial residual = 0.391787, Final residual = 8.91028e-06, No Iterations 45
magnetic flux divergence error = 4.5368e-11
BiCGStab:  Solving for Bx, Initial residual = 1.15345e-05, Final residual = 3.21914e-08, No Iterations 1
BiCGStab:  Solving for By, Initial residual = 0.00131981, Final residual = 4.43064e-06, No Iterations 1
CholeskyCG:  Solving for pB, Initial residual = 0.00387937, Final residual = 7.84374e-06, No Iterations 13
magnetic flux divergence error = 5.43245e-11
BiCGStab:  Solving for Bx, Initial residual = 7.173e-08, Final residual = 7.173e-08, No Iterations 0
BiCGStab:  Solving for By, Initial residual = 4.64994e-06, Final residual = 4.64994e-06, No Iterations 0
CholeskyCG:  Solving for pB, Initial residual = 7.84675e-06, Final residual = 7.84675e-06, No Iterations 0
magnetic flux divergence error = 5.43245e-11
Time = 0.015

Courant Number mean: 0.00526128 max: 0.055984 velocity magnitude: 1.12189
BiCGStab:  Solving for Ux, Initial residual = 0.0580717, Final residual = 4.79043e-07, No Iterations 2
BiCGStab:  Solving for Uy, Initial residual = 0.0943413, Final residual = 1.47667e-06, No Iterations 2
CholeskyCG:  Solving for p, Initial residual = 0.0592776, Final residual = 9.14687e-07, No Iterations 95
time step continuity errors : sum local = 3.32693e-10, global = -9.56413e-13, cumulative = -7.74647e-10
CholeskyCG:  Solving for p, Initial residual = 0.0316208, Final residual = 8.81949e-07, No Iterations 94
time step continuity errors : sum local = 2.95083e-10, global = -1.01131e-12, cumulative = -7.75658e-10
CholeskyCG:  Solving for p, Initial residual = 0.00832406, Final residual = 8.54589e-07, No Iterations 89
time step continuity errors : sum local = 2.9766e-10, global = -4.00094e-12, cumulative = -7.79659e-10
BiCGStab:  Solving for Bx, Initial residual = 0.180894, Final residual = 5.07136e-07, No Iterations 2
BiCGStab:  Solving for By, Initial residual = 0.203352, Final residual = 3.3265e-06, No Iterations 2
CholeskyCG:  Solving for pB, Initial residual = 0.200034, Final residual = 9.12072e-06, No Iterations 44
magnetic flux divergence error = 7.75529e-11
BiCGStab:  Solving for Bx, Initial residual = 7.02227e-06, Final residual = 7.02227e-06, No Iterations 0
BiCGStab:  Solving for By, Initial residual = 0.00084497, Final residual = 3.16309e-06, No Iterations 1
CholeskyCG:  Solving for pB, Initial residual = 0.00262218, Final residual = 5.84882e-06, No Iterations 11
magnetic flux divergence error = 5.89604e-11
BiCGStab:  Solving for Bx, Initial residual = 7.02747e-06, Final residual = 7.02747e-06, No Iterations 0
BiCGStab:  Solving for By, Initial residual = 3.95477e-06, Final residual = 3.95477e-06, No Iterations 0
CholeskyCG:  Solving for pB, Initial residual = 5.84997e-06, Final residual = 5.84997e-06, No Iterations 0
magnetic flux divergence error = 5.89604e-11
Time = 0.02

Courant Number mean: 0.0053011 max: 0.0575988 velocity magnitude: 1.15198
BiCGStab:  Solving for Ux, Initial residual = 0.0422174, Final residual = 3.19428e-07, No Iterations 2
BiCGStab:  Solving for Uy, Initial residual = 0.070123, Final residual = 9.58366e-07, No Iterations 2
CholeskyCG:  Solving for p, Initial residual = 0.0228646, Final residual = 6.42239e-07, No Iterations 93
time step continuity errors : sum local = 2.21509e-10, global = -1.29788e-12, cumulative = -7.80957e-10
CholeskyCG:  Solving for p, Initial residual = 0.0150708, Final residual = 8.18966e-07, No Iterations 93
time step continuity errors : sum local = 1.75423e-10, global = 1.60848e-12, cumulative = -7.79348e-10
CholeskyCG:  Solving for p, Initial residual = 0.00274936, Final residual = 9.2005e-07, No Iterations 86
time step continuity errors : sum local = 2.88249e-10, global = -1.96535e-12, cumulative = -7.81314e-10
BiCGStab:  Solving for Bx, Initial residual = 0.128663, Final residual = 3.88041e-07, No Iterations 2
BiCGStab:  Solving for By, Initial residual = 0.132278, Final residual = 2.06804e-06, No Iterations 2
CholeskyCG:  Solving for pB, Initial residual = 0.133876, Final residual = 9.64801e-06, No Iterations 38
magnetic flux divergence error = 1.11165e-10
BiCGStab:  Solving for Bx, Initial residual = 5.39229e-06, Final residual = 5.39229e-06, No Iterations 0
BiCGStab:  Solving for By, Initial residual = 0.000613217, Final residual = 2.47323e-06, No Iterations 1
CholeskyCG:  Solving for pB, Initial residual = 0.00197567, Final residual = 9.73536e-06, No Iterations 10
magnetic flux divergence error = 1.26203e-10
BiCGStab:  Solving for Bx, Initial residual = 5.39653e-06, Final residual = 5.39653e-06, No Iterations 0
BiCGStab:  Solving for By, Initial residual = 3.01218e-06, Final residual = 3.01218e-06, No Iterations 0
CholeskyCG:  Solving for pB, Initial residual = 9.73688e-06, Final residual = 9.73688e-06, No Iterations 0
magnetic flux divergence error = 1.26203e-10
Time = 0.025

Courant Number mean: 0.00533355 max: 0.0590769 velocity magnitude: 1.18154
BiCGStab:  Solving for Ux, Initial residual = 0.0318126, Final residual = 2.16752e-07, No Iterations 2
BiCGStab:  Solving for Uy, Initial residual = 0.0525565, Final residual = 6.58487e-07, No Iterations 2
CholeskyCG:  Solving for p, Initial residual = 0.0133491, Final residual = 6.61042e-07, No Iterations 92
time step continuity errors : sum local = 2.07275e-10, global = 1.81633e-13, cumulative = -7.81132e-10
CholeskyCG:  Solving for p, Initial residual = 0.00713871, Final residual = 9.63097e-07, No Iterations 91
time step continuity errors : sum local = 2.23777e-10, global = -2.07361e-12, cumulative = -7.83205e-10
CholeskyCG:  Solving for p, Initial residual = 0.000763804, Final residual = 6.03348e-07, No Iterations 83
time step continuity errors : sum local = 1.77856e-10, global = 1.97172e-12, cumulative = -7.81234e-10
BiCGStab:  Solving for Bx, Initial residual = 0.101432, Final residual = 2.98036e-07, No Iterations 2
BiCGStab:  Solving for By, Initial residual = 0.0961664, Final residual = 1.44991e-06, No Iterations 2
CholeskyCG:  Solving for pB, Initial residual = 0.0992283, Final residual = 9.6323e-06, No Iterations 38
magnetic flux divergence error = 1.37334e-10
BiCGStab:  Solving for Bx, Initial residual = 4.37214e-06, Final residual = 4.37214e-06, No Iterations 0
BiCGStab:  Solving for By, Initial residual = 0.00047451, Final residual = 2.02747e-06, No Iterations 1
CholeskyCG:  Solving for pB, Initial residual = 0.00156965, Final residual = 8.88114e-06, No Iterations 10
magnetic flux divergence error = 1.38113e-10
BiCGStab:  Solving for Bx, Initial residual = 4.37564e-06, Final residual = 4.37564e-06, No Iterations 0
BiCGStab:  Solving for By, Initial residual = 2.40062e-06, Final residual = 2.40062e-06, No Iterations 0
CholeskyCG:  Solving for pB, Initial residual = 8.88266e-06, Final residual = 8.88266e-06, No Iterations 0
magnetic flux divergence error = 1.38113e-10
Time = 0.03

Courant Number mean: 0.0053604 max: 0.0604503 velocity magnitude: 1.20901
BiCGStab:  Solving for Ux, Initial residual = 0.0249729, Final residual = 1.46697e-07, No Iterations 2
BiCGStab:  Solving for Uy, Initial residual = 0.0415346, Final residual = 4.48282e-07, No Iterations 2
CholeskyCG:  Solving for p, Initial residual = 0.0110642, Final residual = 7.72346e-07, No Iterations 90
time step continuity errors : sum local = 2.28197e-10, global = -4.34478e-14, cumulative = -7.81277e-10
CholeskyCG:  Solving for p, Initial residual = 0.00649112, Final residual = 9.09282e-07, No Iterations 89
time step continuity errors : sum local = 2.19858e-10, global = 8.37713e-14, cumulative = -7.81193e-10
CholeskyCG:  Solving for p, Initial residual = 0.000489175, Final residual = 7.31208e-07, No Iterations 82
time step continuity errors : sum local = 2.06909e-10, global = -2.1791e-12, cumulative = -7.83373e-10
BiCGStab:  Solving for Bx, Initial residual = 0.0842545, Final residual = 2.17438e-07, No Iterations 2
BiCGStab:  Solving for By, Initial residual = 0.0748863, Final residual = 1.09281e-06, No Iterations 2
CholeskyCG:  Solving for pB, Initial residual = 0.0778963, Final residual = 9.98473e-06, No Iterations 37
magnetic flux divergence error = 1.66704e-10
BiCGStab:  Solving for Bx, Initial residual = 3.66184e-06, Final residual = 3.66184e-06, No Iterations 0
BiCGStab:  Solving for By, Initial residual = 0.000382181, Final residual = 1.70364e-06, No Iterations 1
CholeskyCG:  Solving for pB, Initial residual = 0.00130329, Final residual = 8.03183e-06, No Iterations 10
magnetic flux divergence error = 1.43298e-10
BiCGStab:  Solving for Bx, Initial residual = 3.66504e-06, Final residual = 3.66504e-06, No Iterations 0
BiCGStab:  Solving for By, Initial residual = 1.95172e-06, Final residual = 1.95172e-06, No Iterations 0
CholeskyCG:  Solving for pB, Initial residual = 8.0327e-06, Final residual = 8.0327e-06, No Iterations 0
magnetic flux divergence error = 1.43298e-10
Time = 0.035

Courant Number mean: 0.00538284 max: 0.0617342 velocity magnitude: 1.23468
BiCGStab:  Solving for Ux, Initial residual = 0.0200538, Final residual = 1.00833e-07, No Iterations 2
BiCGStab:  Solving for Uy, Initial residual = 0.0338755, Final residual = 2.78237e-07, No Iterations 2
CholeskyCG:  Solving for p, Initial residual = 0.00962847, Final residual = 8.29556e-07, No Iterations 89
time step continuity errors : sum local = 2.35566e-10, global = -5.18368e-13, cumulative = -7.83891e-10
CholeskyCG:  Solving for p, Initial residual = 0.00620567, Final residual = 6.62539e-07, No Iterations 89
time step continuity errors : sum local = 1.64073e-10, global = 5.70486e-13, cumulative = -7.8332e-10
CholeskyCG:  Solving for p, Initial residual = 0.000383455, Final residual = 5.22737e-07, No Iterations 82
time step continuity errors : sum local = 1.43934e-10, global = -2.52362e-12, cumulative = -7.85844e-10
BiCGStab:  Solving for Bx, Initial residual = 0.0721664, Final residual = 1.58079e-07, No Iterations 2
BiCGStab:  Solving for By, Initial residual = 0.060479, Final residual = 8.61629e-07, No Iterations 2
CholeskyCG:  Solving for pB, Initial residual = 0.0637844, Final residual = 9.48252e-06, No Iterations 37
magnetic flux divergence error = 1.78714e-10
BiCGStab:  Solving for Bx, Initial residual = 3.14109e-06, Final residual = 3.14109e-06, No Iterations 0
BiCGStab:  Solving for By, Initial residual = 0.000315795, Final residual = 1.4537e-06, No Iterations 1
CholeskyCG:  Solving for pB, Initial residual = 0.00111695, Final residual = 7.27766e-06, No Iterations 10
magnetic flux divergence error = 1.44475e-10
BiCGStab:  Solving for Bx, Initial residual = 3.14365e-06, Final residual = 3.14365e-06, No Iterations 0
BiCGStab:  Solving for By, Initial residual = 1.6208e-06, Final residual = 1.6208e-06, No Iterations 0
CholeskyCG:  Solving for pB, Initial residual = 7.27849e-06, Final residual = 7.27849e-06, No Iterations 0
magnetic flux divergence error = 1.44475e-10
Time = 0.04

Courant Number mean: 0.00540162 max: 0.0629287 velocity magnitude: 1.25857
BiCGStab:  Solving for Ux, Initial residual = 0.0162401, Final residual = 9.82873e-06, No Iterations 1
BiCGStab:  Solving for Uy, Initial residual = 0.028141, Final residual = 1.60449e-07, No Iterations 2
CholeskyCG:  Solving for p, Initial residual = 0.00882168, Final residual = 8.70165e-07, No Iterations 89
time step continuity errors : sum local = 2.40642e-10, global = -1.34593e-12, cumulative = -7.8719e-10
CholeskyCG:  Solving for p, Initial residual = 0.00616829, Final residual = 6.81236e-07, No Iterations 89
time step continuity errors : sum local = 1.71768e-10, global = 1.60962e-12, cumulative = -7.8558e-10
CholeskyCG:  Solving for p, Initial residual = 0.000326416, Final residual = 6.8208e-07, No Iterations 81
time step continuity errors : sum local = 1.84498e-10, global = -5.70905e-13, cumulative = -7.86151e-10
BiCGStab:  Solving for Bx, Initial residual = 0.0630276, Final residual = 1.17682e-07, No Iterations 2
BiCGStab:  Solving for By, Initial residual = 0.0501384, Final residual = 7.01829e-07, No Iterations 2
CholeskyCG:  Solving for pB, Initial residual = 0.0539299, Final residual = 9.58484e-06, No Iterations 36
magnetic flux divergence error = 1.99181e-10
BiCGStab:  Solving for Bx, Initial residual = 2.74723e-06, Final residual = 2.74723e-06, No Iterations 0
BiCGStab:  Solving for By, Initial residual = 0.000265439, Final residual = 1.25115e-06, No Iterations 1
CholeskyCG:  Solving for pB, Initial residual = 0.000971167, Final residual = 6.64539e-06, No Iterations 10
magnetic flux divergence error = 1.44278e-10
BiCGStab:  Solving for Bx, Initial residual = 2.7493e-06, Final residual = 2.7493e-06, No Iterations 0
BiCGStab:  Solving for By, Initial residual = 1.35852e-06, Final residual = 1.35852e-06, No Iterations 0
CholeskyCG:  Solving for pB, Initial residual = 6.64574e-06, Final residual = 6.64574e-06, No Iterations 0
magnetic flux divergence error = 1.44278e-10
Time = 0.045

Courant Number mean: 0.00541729 max: 0.0640267 velocity magnitude: 1.28053
BiCGStab:  Solving for Ux, Initial residual = 0.0132044, Final residual = 6.6823e-06, No Iterations 1
BiCGStab:  Solving for Uy, Initial residual = 0.0236727, Final residual = 9.85707e-08, No Iterations 2
CholeskyCG:  Solving for p, Initial residual = 0.00843128, Final residual = 8.18734e-07, No Iterations 89
time step continuity errors : sum local = 2.22511e-10, global = -1.20047e-12, cumulative = -7.87352e-10
CholeskyCG:  Solving for p, Initial residual = 0.00606688, Final residual = 8.5148e-07, No Iterations 88
time step continuity errors : sum local = 2.17628e-10, global = -1.93921e-13, cumulative = -7.87546e-10
CholeskyCG:  Solving for p, Initial residual = 0.000290137, Final residual = 7.45449e-07, No Iterations 81
time step continuity errors : sum local = 1.99482e-10, global = -6.32461e-13, cumulative = -7.88178e-10
BiCGStab:  Solving for Bx, Initial residual = 0.0557475, Final residual = 9.08878e-08, No Iterations 2
BiCGStab:  Solving for By, Initial residual = 0.0423583, Final residual = 5.85802e-07, No Iterations 2
CholeskyCG:  Solving for pB, Initial residual = 0.0472967, Final residual = 9.05702e-06, No Iterations 36
magnetic flux divergence error = 2.04084e-10
BiCGStab:  Solving for Bx, Initial residual = 2.43477e-06, Final residual = 2.43477e-06, No Iterations 0
BiCGStab:  Solving for By, Initial residual = 0.000226529, Final residual = 1.08552e-06, No Iterations 1
CholeskyCG:  Solving for pB, Initial residual = 0.000860118, Final residual = 6.18225e-06, No Iterations 10
magnetic flux divergence error = 1.44391e-10
BiCGStab:  Solving for Bx, Initial residual = 2.43653e-06, Final residual = 2.43653e-06, No Iterations 0
BiCGStab:  Solving for By, Initial residual = 1.15136e-06, Final residual = 1.15136e-06, No Iterations 0
CholeskyCG:  Solving for pB, Initial residual = 6.18251e-06, Final residual = 6.18251e-06, No Iterations 0
magnetic flux divergence error = 1.44391e-10
Time = 0.05

Courant Number mean: 0.00543024 max: 0.0650187 velocity magnitude: 1.30037
BiCGStab:  Solving for Ux, Initial residual = 0.0106722, Final residual = 4.64961e-06, No Iterations 1
BiCGStab:  Solving for Uy, Initial residual = 0.0201164, Final residual = 6.88412e-08, No Iterations 2
CholeskyCG:  Solving for p, Initial residual = 0.00820826, Final residual = 8.08588e-07, No Iterations 88
time step continuity errors : sum local = 2.17396e-10, global = 1.97161e-12, cumulative = -7.86207e-10
CholeskyCG:  Solving for p, Initial residual = 0.00597307, Final residual = 6.55755e-07, No Iterations 88
time step continuity errors : sum local = 1.69622e-10, global = -1.6648e-12, cumulative = -7.87871e-10
CholeskyCG:  Solving for p, Initial residual = 0.000263219, Final residual = 7.4135e-07, No Iterations 81
time step continuity errors : sum local = 1.972e-10, global = -1.09215e-12, cumulative = -7.88963e-10
BiCGStab:  Solving for Bx, Initial residual = 0.0498368, Final residual = 7.18067e-08, No Iterations 2
BiCGStab:  Solving for By, Initial residual = 0.0362749, Final residual = 4.98803e-07, No Iterations 2
CholeskyCG:  Solving for pB, Initial residual = 0.0427479, Final residual = 9.62494e-06, No Iterations 35
magnetic flux divergence error = 2.32117e-10
BiCGStab:  Solving for Bx, Initial residual = 2.17929e-06, Final residual = 2.17929e-06, No Iterations 0
BiCGStab:  Solving for By, Initial residual = 0.000195482, Final residual = 9.46838e-07, No Iterations 1
CholeskyCG:  Solving for pB, Initial residual = 0.000768829, Final residual = 5.85104e-06, No Iterations 10
magnetic flux divergence error = 1.45552e-10
BiCGStab:  Solving for Bx, Initial residual = 2.18079e-06, Final residual = 2.18079e-06, No Iterations 0
BiCGStab:  Solving for By, Initial residual = 9.87464e-07, Final residual = 9.87464e-07, No Iterations 0
CholeskyCG:  Solving for pB, Initial residual = 5.85138e-06, Final residual = 5.85138e-06, No Iterations 0
magnetic flux divergence error = 1.45552e-10
Time = 0.055

Courant Number mean: 0.00544079 max: 0.065896 velocity magnitude: 1.31792
BiCGStab:  Solving for Ux, Initial residual = 0.00857561, Final residual = 3.42042e-06, No Iterations 1
BiCGStab:  Solving for Uy, Initial residual = 0.017134, Final residual = 6.86158e-08, No Iterations 2
CholeskyCG:  Solving for p, Initial residual = 0.00797747, Final residual = 7.66521e-07, No Iterations 88
time step continuity errors : sum local = 2.0482e-10, global = 1.45561e-12, cumulative = -7.87508e-10
CholeskyCG:  Solving for p, Initial residual = 0.0058423, Final residual = 8.57914e-07, No Iterations 87
time step continuity errors : sum local = 2.2438e-10, global = -3.03958e-12, cumulative = -7.90547e-10
CholeskyCG:  Solving for p, Initial residual = 0.000238868, Final residual = 7.60369e-07, No Iterations 81
time step continuity errors : sum local = 2.01732e-10, global = -1.98141e-12, cumulative = -7.92529e-10
BiCGStab:  Solving for Bx, Initial residual = 0.0448195, Final residual = 5.70763e-08, No Iterations 2
BiCGStab:  Solving for By, Initial residual = 0.0313985, Final residual = 4.31802e-07, No Iterations 2
CholeskyCG:  Solving for pB, Initial residual = 0.0386625, Final residual = 9.223e-06, No Iterations 35
magnetic flux divergence error = 2.35898e-10
BiCGStab:  Solving for Bx, Initial residual = 1.96698e-06, Final residual = 1.96698e-06, No Iterations 0
BiCGStab:  Solving for By, Initial residual = 0.000170027, Final residual = 8.29592e-07, No Iterations 1
CholeskyCG:  Solving for pB, Initial residual = 0.000690439, Final residual = 9.33797e-06, No Iterations 9
magnetic flux divergence error = 2.45387e-10
BiCGStab:  Solving for Bx, Initial residual = 1.96765e-06, Final residual = 1.96765e-06, No Iterations 0
BiCGStab:  Solving for By, Initial residual = 8.5206e-07, Final residual = 8.5206e-07, No Iterations 0
CholeskyCG:  Solving for pB, Initial residual = 9.33834e-06, Final residual = 9.33834e-06, No Iterations 0
magnetic flux divergence error = 2.45387e-10
Time = 0.06

Courant Number mean: 0.00544919 max: 0.0666521 velocity magnitude: 1.33304
BiCGStab:  Solving for Ux, Initial residual = 0.00671791, Final residual = 2.67229e-06, No Iterations 1
BiCGStab:  Solving for Uy, Initial residual = 0.0147187, Final residual = 7.73372e-08, No Iterations 2
CholeskyCG:  Solving for p, Initial residual = 0.00783248, Final residual = 7.48315e-07, No Iterations 88
time step continuity errors : sum local = 1.99433e-10, global = 1.04343e-12, cumulative = -7.91485e-10
CholeskyCG:  Solving for p, Initial residual = 0.0057212, Final residual = 8.7752e-07, No Iterations 87
time step continuity errors : sum local = 2.32049e-10, global = -2.8713e-12, cumulative = -7.94357e-10
CholeskyCG:  Solving for p, Initial residual = 0.000216798, Final residual = 6.18782e-07, No Iterations 81
time step continuity errors : sum local = 1.64242e-10, global = -3.41559e-12, cumulative = -7.97772e-10
BiCGStab:  Solving for Bx, Initial residual = 0.040437, Final residual = 8.92635e-06, No Iterations 1
BiCGStab:  Solving for By, Initial residual = 0.0274234, Final residual = 3.78895e-07, No Iterations 2
CholeskyCG:  Solving for pB, Initial residual = 0.035101, Final residual = 9.97451e-06, No Iterations 67
magnetic flux divergence error = 2.68739e-10
BiCGStab:  Solving for Bx, Initial residual = 9.81962e-06, Final residual = 9.81962e-06, No Iterations 0
BiCGStab:  Solving for By, Initial residual = 0.000148808, Final residual = 7.29688e-07, No Iterations 1
CholeskyCG:  Solving for pB, Initial residual = 0.000627715, Final residual = 9.13383e-06, No Iterations 9
magnetic flux divergence error = 2.52157e-10
BiCGStab:  Solving for Bx, Initial residual = 9.82099e-06, Final residual = 9.82099e-06, No Iterations 0
BiCGStab:  Solving for By, Initial residual = 7.39986e-07, Final residual = 7.39986e-07, No Iterations 0
CholeskyCG:  Solving for pB, Initial residual = 9.13419e-06, Final residual = 9.13419e-06, No Iterations 0
magnetic flux divergence error = 2.52157e-10
Time = 0.065

Courant Number mean: 0.00545568 max: 0.0672844 velocity magnitude: 1.34569
BiCGStab:  Solving for Ux, Initial residual = 0.00517204, Final residual = 2.17055e-06, No Iterations 1
BiCGStab:  Solving for Uy, Initial residual = 0.0126786, Final residual = 7.79126e-08, No Iterations 2
CholeskyCG:  Solving for p, Initial residual = 0.0076562, Final residual = 7.86214e-07, No Iterations 88
time step continuity errors : sum local = 2.09579e-10, global = 7.17386e-13, cumulative = -7.97055e-10
CholeskyCG:  Solving for p, Initial residual = 0.0056046, Final residual = 9.42254e-07, No Iterations 87
time step continuity errors : sum local = 2.51867e-10, global = -2.78035e-12, cumulative = -7.99835e-10
CholeskyCG:  Solving for p, Initial residual = 0.000198991, Final residual = 9.16703e-07, No Iterations 10
time step continuity errors : sum local = 2.43912e-10, global = 1.84074e-11, cumulative = -7.81428e-10
BiCGStab:  Solving for Bx, Initial residual = 0.0365621, Final residual = 7.31453e-06, No Iterations 1
BiCGStab:  Solving for By, Initial residual = 0.0241452, Final residual = 3.36515e-07, No Iterations 2
CholeskyCG:  Solving for pB, Initial residual = 0.0316041, Final residual = 9.79868e-06, No Iterations 65
magnetic flux divergence error = 2.76855e-10
BiCGStab:  Solving for Bx, Initial residual = 8.18903e-06, Final residual = 8.18903e-06, No Iterations 0
BiCGStab:  Solving for By, Initial residual = 0.000130838, Final residual = 6.43133e-07, No Iterations 1
CholeskyCG:  Solving for pB, Initial residual = 0.00057054, Final residual = 8.38984e-06, No Iterations 9
magnetic flux divergence error = 2.42483e-10