/*--------------------------------*- C++ -*----------------------------------*\
| =========                 |                                                 |
| \\      /  F ield         | foam-extend: Open Source CFD                    |
|  \\    /   O peration     | Version:     5.0                                |
|   \\  /    A nd           | Web:         http://www.foam-extend.org         |
|    \\/     M anipulation  | For copyright notice see file Copyright         |
\*---------------------------------------------------------------------------*/
FoamFile
{
    version     2.0;
    format      ascii;
    class       dictionary;
    object      fvSchemes;
}
// * * * * * * * * * * * * * * * * * * * * * * * * * * * * * * * * * * * * * //

ddtSchemes
{
    default Euler;
}

gradSchemes
{
    default         Gauss linear;
    grad(p)         Gauss linear;
    grad((DBU*magSqr(B))) Gauss linear;
}

divSchemes
{
    default         none;
    div(phi,U)      Gauss linear;
    div(phiB,U)     Gauss linear;
    div(phi,B)      Gauss linear;
    div(phiB,((2*DBU)*B)) Gauss linear;
}

laplacianSchemes
{
    default         none;
    laplacian(nu,U) Gauss linear corrected;
    laplacian((1|A(U)),p) Gauss linear corrected;
    laplacian(DB,B) Gauss linear corrected;
    laplacian((1|A(B)),pB) Gauss linear corrected;
}

interpolationSchemes
{
    default         linear;
    interpolate(HbyA) linear;
    interpolate(B)  linear;
}

snGradSchemes
{
    default         corrected;
}

// ************************************************************************* //
/*--------------------------------*- C++ -*----------------------------------*\
| =========                 |                                                 |
| \\      /  F ield         | foam-extend: Open Source CFD                    |
|  \\    /   O peration     | Version:     5.0                                |
|   \\  /    A nd           | Web:         http://www.foam-extend.org         |
|    \\/     M anipulation  | For copyright notice see file Copyright         |
\*---------------------------------------------------------------------------*/
FoamFile
{
    version     2.0;
    format      ascii;
    class       dictionary;
    object      fvSolution;
}
// * * * * * * * * * * * * * * * * * * * * * * * * * * * * * * * * * * * * * //

solvers
{
    p
    {
        solver           CG;
        preconditioner   Cholesky;
        tolerance        1e-06;
        relTol           0;
    }
    U
    {
        solver           BiCGStab;
        preconditioner   DILU;
        tolerance        1e-05;
        relTol           0;
    }
    B
    {
        solver           BiCGStab;
        preconditioner   DILU;
        tolerance        1e-05;
        relTol           0;
    }
    pB
    {
        solver           CG;
        preconditioner   Cholesky;
        tolerance        1e-05;
        relTol           0;
    }
}

PISO
{
    nCorrectors     3;
    nNonOrthogonalCorrectors 0;
}

BPISO
{
    nCorrectors     3;
}

// ************************************************************************* //
/*---------------------------------------------------------------------------*\
| =========                 |                                                 |
| \\      /  F ield         | foam-extend: Open Source CFD                    |
|  \\    /   O peration     | Version:     5.0                                |
|   \\  /    A nd           | Web:         http://www.foam-extend.org         |
|    \\/     M anipulation  | For copyright notice see file Copyright         |
\*---------------------------------------------------------------------------*/
Build  : 5.0-73c2a3d539c2
Exec   : mhdFoam
Date   : Jul 10 2023
Time   : 12:17:23
Host   : "ojm40-OMEN"
PID    : 333763
CtrlDict : "/home/ojm40/foam/ojm40-5.0/work/liquidMetalBattery/run/hartmannMHD/system/controlDict"
Case   : /home/ojm40/foam/ojm40-5.0/work/liquidMetalBattery/run/hartmannMHD
nProcs : 1
sigFpe : Enabling floating point exception trapping (FOAM_SIGFPE).
allowSystemOperations : Disallowing user-supplied system call operations

// * * * * * * * * * * * * * * * * * * * * * * * * * * * * * * * * * * * * * //
Create time

Create mesh for time = 0


PISO: Operating solver in PISO mode

Reading transportProperties

Reading field p

Reading field U

Reading/calculating face flux field phi

Reading field pB

Reading field B

Calculating face flux


Starting time loop
Time = 0.00133333

Courant Number mean: 0 max: 0.00333333 velocity magnitude: 1
BiCGStab:  Solving for Ux, Initial residual = 1, Final residual = 6.96084e-09, No Iterations 1
BiCGStab:  Solving for Uy, Initial residual = 0, Final residual = 0, No Iterations 0
CholeskyCG:  Solving for p, Initial residual = 1, Final residual = 8.32537e-07, No Iterations 29
time step continuity errors : sum local = 5.55025e-11, global = -6.44597e-13, cumulative = -6.44597e-13
CholeskyCG:  Solving for p, Initial residual = 0.00118447, Final residual = 8.49044e-07, No Iterations 24
time step continuity errors : sum local = 2.94644e-09, global = -2.55086e-11, cumulative = -2.61532e-11
CholeskyCG:  Solving for p, Initial residual = 2.1672e-05, Final residual = 3.47999e-07, No Iterations 22
time step continuity errors : sum local = 1.13751e-09, global = 3.50517e-11, cumulative = 8.8985e-12
BiCGStab:  Solving for Bx, Initial residual = 1, Final residual = 7.121e-09, No Iterations 1
BiCGStab:  Solving for By, Initial residual = 1, Final residual = 8.59466e-09, No Iterations 1
CholeskyCG:  Solving for pB, Initial residual = 1, Final residual = 4.27822e-06, No Iterations 25
magnetic flux divergence error = 9.12345e-13
BiCGStab:  Solving for Bx, Initial residual = 1.09713e-05, Final residual = 7.45387e-14, No Iterations 1
BiCGStab:  Solving for By, Initial residual = 0.000228099, Final residual = 1.79254e-12, No Iterations 1
CholeskyCG:  Solving for pB, Initial residual = 0.000532339, Final residual = 6.10629e-06, No Iterations 3
magnetic flux divergence error = 2.60534e-12
BiCGStab:  Solving for Bx, Initial residual = 3.34955e-09, Final residual = 3.34955e-09, No Iterations 0
BiCGStab:  Solving for By, Initial residual = 8.97175e-08, Final residual = 8.97175e-08, No Iterations 0
CholeskyCG:  Solving for pB, Initial residual = 6.10403e-06, Final residual = 6.10403e-06, No Iterations 0
magnetic flux divergence error = 2.60534e-12
Time = 0.00266667

Courant Number mean: 0.000352336 max: 0.00337556 velocity magnitude: 1.01267
BiCGStab:  Solving for Ux, Initial residual = 0.951272, Final residual = 1.73829e-09, No Iterations 1
BiCGStab:  Solving for Uy, Initial residual = 0.329652, Final residual = 2.85169e-09, No Iterations 1
CholeskyCG:  Solving for p, Initial residual = 0.0205263, Final residual = 2.67187e-07, No Iterations 27
time step continuity errors : sum local = 8.57471e-10, global = 7.99058e-12, cumulative = 1.68891e-11
CholeskyCG:  Solving for p, Initial residual = 0.022711, Final residual = 9.45894e-07, No Iterations 26
time step continuity errors : sum local = 1.67206e-10, global = 1.58458e-12, cumulative = 1.84737e-11
CholeskyCG:  Solving for p, Initial residual = 0.00104592, Final residual = 6.51796e-07, No Iterations 24
time step continuity errors : sum local = 3.7027e-11, global = -6.74809e-14, cumulative = 1.84062e-11
BiCGStab:  Solving for Bx, Initial residual = 0.323398, Final residual = 2.29939e-09, No Iterations 1
BiCGStab:  Solving for By, Initial residual = 0.486154, Final residual = 4.20859e-09, No Iterations 1
CholeskyCG:  Solving for pB, Initial residual = 0.170016, Final residual = 8.2961e-06, No Iterations 18
magnetic flux divergence error = 4.00363e-12
BiCGStab:  Solving for Bx, Initial residual = 4.94587e-06, Final residual = 4.94587e-06, No Iterations 0
BiCGStab:  Solving for By, Initial residual = 0.000155162, Final residual = 1.23417e-12, No Iterations 1
CholeskyCG:  Solving for pB, Initial residual = 4.51943e-05, Final residual = 4.13795e-06, No Iterations 1
magnetic flux divergence error = 2.22774e-12
BiCGStab:  Solving for Bx, Initial residual = 4.94589e-06, Final residual = 4.94589e-06, No Iterations 0
BiCGStab:  Solving for By, Initial residual = 1.36554e-09, Final residual = 1.36554e-09, No Iterations 0
CholeskyCG:  Solving for pB, Initial residual = 4.13793e-06, Final residual = 4.13793e-06, No Iterations 0
magnetic flux divergence error = 2.22774e-12
Time = 0.004

Courant Number mean: 0.000353699 max: 0.00341593 velocity magnitude: 1.02478
BiCGStab:  Solving for Ux, Initial residual = 0.128432, Final residual = 9.70452e-10, No Iterations 1
BiCGStab:  Solving for Uy, Initial residual = 0.19555, Final residual = 1.69789e-09, No Iterations 1
CholeskyCG:  Solving for p, Initial residual = 0.0409029, Final residual = 3.39114e-07, No Iterations 27
time step continuity errors : sum local = 1.87423e-11, global = 7.28575e-14, cumulative = 1.8479e-11
CholeskyCG:  Solving for p, Initial residual = 0.00132566, Final residual = 8.68084e-07, No Iterations 24
time step continuity errors : sum local = 4.45017e-11, global = -9.67355e-14, cumulative = 1.83823e-11
CholeskyCG:  Solving for p, Initial residual = 3.89418e-05, Final residual = 9.6529e-07, No Iterations 4
time step continuity errors : sum local = 4.96272e-11, global = -5.30069e-12, cumulative = 1.30816e-11
BiCGStab:  Solving for Bx, Initial residual = 0.189836, Final residual = 1.32891e-09, No Iterations 1
BiCGStab:  Solving for By, Initial residual = 0.316437, Final residual = 2.75805e-09, No Iterations 1
CholeskyCG:  Solving for pB, Initial residual = 0.0607935, Final residual = 8.76837e-06, No Iterations 10
magnetic flux divergence error = 4.83291e-12
BiCGStab:  Solving for Bx, Initial residual = 3.14792e-06, Final residual = 3.14792e-06, No Iterations 0
BiCGStab:  Solving for By, Initial residual = 0.000116663, Final residual = 9.31906e-13, No Iterations 1
CholeskyCG:  Solving for pB, Initial residual = 6.3135e-05, Final residual = 5.79307e-06, No Iterations 1
magnetic flux divergence error = 3.26721e-12
BiCGStab:  Solving for Bx, Initial residual = 3.14793e-06, Final residual = 3.14793e-06, No Iterations 0
BiCGStab:  Solving for By, Initial residual = 1.54214e-09, Final residual = 1.54214e-09, No Iterations 0
CholeskyCG:  Solving for pB, Initial residual = 5.79305e-06, Final residual = 5.79305e-06, No Iterations 0
magnetic flux divergence error = 3.26721e-12
Time = 0.00533333

Courant Number mean: 0.000354972 max: 0.00345446 velocity magnitude: 1.03634
BiCGStab:  Solving for Ux, Initial residual = 0.0956425, Final residual = 7.1558e-10, No Iterations 1
BiCGStab:  Solving for Uy, Initial residual = 0.137297, Final residual = 1.19737e-09, No Iterations 1
CholeskyCG:  Solving for p, Initial residual = 0.0293953, Final residual = 2.49101e-07, No Iterations 27
time step continuity errors : sum local = 1.24863e-11, global = 5.38564e-14, cumulative = 1.31355e-11
CholeskyCG:  Solving for p, Initial residual = 0.000951722, Final residual = 6.30131e-07, No Iterations 24
time step continuity errors : sum local = 2.96937e-11, global = -4.77977e-14, cumulative = 1.30877e-11
CholeskyCG:  Solving for p, Initial residual = 2.74938e-05, Final residual = 7.58152e-07, No Iterations 4
time step continuity errors : sum local = 3.58194e-11, global = -4.8088e-12, cumulative = 8.27887e-12
BiCGStab:  Solving for Bx, Initial residual = 0.133047, Final residual = 9.03952e-10, No Iterations 1
BiCGStab:  Solving for By, Initial residual = 0.231949, Final residual = 2.03553e-09, No Iterations 1
CholeskyCG:  Solving for pB, Initial residual = 0.047664, Final residual = 9.0533e-06, No Iterations 10
magnetic flux divergence error = 5.13849e-12
BiCGStab:  Solving for Bx, Initial residual = 2.29883e-06, Final residual = 2.29883e-06, No Iterations 0
BiCGStab:  Solving for By, Initial residual = 9.28848e-05, Final residual = 7.50264e-13, No Iterations 1
CholeskyCG:  Solving for pB, Initial residual = 7.97157e-05, Final residual = 6.61073e-06, No Iterations 1
magnetic flux divergence error = 3.77593e-12
BiCGStab:  Solving for Bx, Initial residual = 2.29885e-06, Final residual = 2.29885e-06, No Iterations 0
BiCGStab:  Solving for By, Initial residual = 1.67927e-09, Final residual = 1.67927e-09, No Iterations 0
CholeskyCG:  Solving for pB, Initial residual = 6.61069e-06, Final residual = 6.61069e-06, No Iterations 0
magnetic flux divergence error = 3.77593e-12
Time = 0.00666667

Courant Number mean: 0.000356164 max: 0.00349138 velocity magnitude: 1.04742
BiCGStab:  Solving for Ux, Initial residual = 0.0744348, Final residual = 5.51071e-10, No Iterations 1
BiCGStab:  Solving for Uy, Initial residual = 0.104632, Final residual = 9.17912e-10, No Iterations 1
CholeskyCG:  Solving for p, Initial residual = 0.0220451, Final residual = 7.82313e-07, No Iterations 26
time step continuity errors : sum local = 3.6293e-11, global = -7.53751e-13, cumulative = 7.52512e-12
CholeskyCG:  Solving for p, Initial residual = 0.000709136, Final residual = 4.73534e-07, No Iterations 24
time step continuity errors : sum local = 2.08387e-11, global = -2.73971e-14, cumulative = 7.49772e-12
CholeskyCG:  Solving for p, Initial residual = 2.02667e-05, Final residual = 6.07723e-07, No Iterations 4
time step continuity errors : sum local = 2.68079e-11, global = -4.36488e-12, cumulative = 3.13284e-12
BiCGStab:  Solving for Bx, Initial residual = 0.101776, Final residual = 6.61341e-10, No Iterations 1
BiCGStab:  Solving for By, Initial residual = 0.181417, Final residual = 1.60272e-09, No Iterations 1
CholeskyCG:  Solving for pB, Initial residual = 0.0423488, Final residual = 9.45959e-06, No Iterations 10
magnetic flux divergence error = 5.42909e-12
BiCGStab:  Solving for Bx, Initial residual = 1.80464e-06, Final residual = 1.80464e-06, No Iterations 0
BiCGStab:  Solving for By, Initial residual = 7.72636e-05, Final residual = 6.23789e-13, No Iterations 1
CholeskyCG:  Solving for pB, Initial residual = 9.54963e-05, Final residual = 7.4976e-06, No Iterations 1
magnetic flux divergence error = 4.32367e-12
BiCGStab:  Solving for Bx, Initial residual = 1.80464e-06, Final residual = 1.80464e-06, No Iterations 0
BiCGStab:  Solving for By, Initial residual = 1.78904e-09, Final residual = 1.78904e-09, No Iterations 0
CholeskyCG:  Solving for pB, Initial residual = 7.49747e-06, Final residual = 7.49747e-06, No Iterations 0
magnetic flux divergence error = 4.32367e-12
Time = 0.008

Courant Number mean: 0.00035728 max: 0.00352683 velocity magnitude: 1.05805
BiCGStab:  Solving for Ux, Initial residual = 0.0597974, Final residual = 4.37077e-10, No Iterations 1
BiCGStab:  Solving for Uy, Initial residual = 0.0836354, Final residual = 7.38889e-10, No Iterations 1
CholeskyCG:  Solving for p, Initial residual = 0.0171772, Final residual = 6.0429e-07, No Iterations 26
time step continuity errors : sum local = 2.62975e-11, global = -5.41374e-13, cumulative = 2.59146e-12
CholeskyCG:  Solving for p, Initial residual = 0.000543596, Final residual = 3.65483e-07, No Iterations 24
time step continuity errors : sum local = 1.51865e-11, global = -1.89618e-14, cumulative = 2.5725e-12
CholeskyCG:  Solving for p, Initial residual = 1.54776e-05, Final residual = 8.47319e-07, No Iterations 3
time step continuity errors : sum local = 3.52866e-11, global = -3.9671e-12, cumulative = -1.3946e-12
BiCGStab:  Solving for Bx, Initial residual = 0.0820788, Final residual = 5.02375e-10, No Iterations 1
BiCGStab:  Solving for By, Initial residual = 0.147842, Final residual = 1.31454e-09, No Iterations 1
CholeskyCG:  Solving for pB, Initial residual = 0.0433803, Final residual = 8.83128e-06, No Iterations 10
magnetic flux divergence error = 5.14483e-12
BiCGStab:  Solving for Bx, Initial residual = 1.4735e-06, Final residual = 1.4735e-06, No Iterations 0
BiCGStab:  Solving for By, Initial residual = 6.57503e-05, Final residual = 5.30473e-13, No Iterations 1
CholeskyCG:  Solving for pB, Initial residual = 0.000106823, Final residual = 7.79882e-06, No Iterations 1
magnetic flux divergence error = 4.58938e-12
BiCGStab:  Solving for Bx, Initial residual = 1.47351e-06, Final residual = 1.47351e-06, No Iterations 0
BiCGStab:  Solving for By, Initial residual = 1.8608e-09, Final residual = 1.8608e-09, No Iterations 0
CholeskyCG:  Solving for pB, Initial residual = 7.79861e-06, Final residual = 7.79861e-06, No Iterations 0
magnetic flux divergence error = 4.58938e-12
Time = 0.00933333

Courant Number mean: 0.000358328 max: 0.00356093 velocity magnitude: 1.06828
BiCGStab:  Solving for Ux, Initial residual = 0.049309, Final residual = 3.53903e-10, No Iterations 1
BiCGStab:  Solving for Uy, Initial residual = 0.0690028, Final residual = 6.14218e-10, No Iterations 1
CholeskyCG:  Solving for p, Initial residual = 0.0138286, Final residual = 4.76086e-07, No Iterations 26
time step continuity errors : sum local = 1.96217e-11, global = -4.03407e-13, cumulative = -1.79801e-12
CholeskyCG:  Solving for p, Initial residual = 0.000427447, Final residual = 2.88009e-07, No Iterations 24
time step continuity errors : sum local = 1.13908e-11, global = -1.61023e-14, cumulative = -1.81411e-12
CholeskyCG:  Solving for p, Initial residual = 1.21739e-05, Final residual = 6.81877e-07, No Iterations 3
time step continuity errors : sum local = 2.70246e-11, global = -3.60329e-12, cumulative = -5.4174e-12
BiCGStab:  Solving for Bx, Initial residual = 0.0685962, Final residual = 3.89319e-10, No Iterations 1
BiCGStab:  Solving for By, Initial residual = 0.123944, Final residual = 1.10892e-09, No Iterations 1
CholeskyCG:  Solving for pB, Initial residual = 0.0334346, Final residual = 9.26946e-06, No Iterations 7
magnetic flux divergence error = 5.5717e-12
BiCGStab:  Solving for Bx, Initial residual = 1.24469e-06, Final residual = 1.24469e-06, No Iterations 0
BiCGStab:  Solving for By, Initial residual = 5.71591e-05, Final residual = 4.60067e-13, No Iterations 1
CholeskyCG:  Solving for pB, Initial residual = 0.00011445, Final residual = 8.83257e-06, No Iterations 1
magnetic flux divergence error = 5.42052e-12
BiCGStab:  Solving for Bx, Initial residual = 1.24469e-06, Final residual = 1.24469e-06, No Iterations 0
BiCGStab:  Solving for By, Initial residual = 1.88397e-09, Final residual = 1.88397e-09, No Iterations 0
CholeskyCG:  Solving for pB, Initial residual = 8.83231e-06, Final residual = 8.83231e-06, No Iterations 0
magnetic flux divergence error = 5.42052e-12
Time = 0.0106667

Courant Number mean: 0.000359312 max: 0.0035938 velocity magnitude: 1.07814
BiCGStab:  Solving for Ux, Initial residual = 0.0424354, Final residual = 2.91017e-10, No Iterations 1
BiCGStab:  Solving for Uy, Initial residual = 0.058317, Final residual = 5.22706e-10, No Iterations 1
CholeskyCG:  Solving for p, Initial residual = 0.0114573, Final residual = 3.80986e-07, No Iterations 26
time step continuity errors : sum local = 1.49771e-11, global = -3.09826e-13, cumulative = -5.72723e-12
CholeskyCG:  Solving for p, Initial residual = 0.000344463, Final residual = 2.30922e-07, No Iterations 24
time step continuity errors : sum local = 8.7467e-12, global = -1.55175e-14, cumulative = -5.74274e-12
CholeskyCG:  Solving for p, Initial residual = 9.82223e-06, Final residual = 5.55954e-07, No Iterations 3
time step continuity errors : sum local = 2.10988e-11, global = -3.27471e-12, cumulative = -9.01746e-12
BiCGStab:  Solving for Bx, Initial residual = 0.0588277, Final residual = 3.04819e-10, No Iterations 1
BiCGStab:  Solving for By, Initial residual = 0.106101, Final residual = 9.55937e-10, No Iterations 1
CholeskyCG:  Solving for pB, Initial residual = 0.0290694, Final residual = 9.07263e-06, No Iterations 7
magnetic flux divergence error = 5.66484e-12
BiCGStab:  Solving for Bx, Initial residual = 1.06923e-06, Final residual = 1.06923e-06, No Iterations 0
BiCGStab:  Solving for By, Initial residual = 5.03828e-05, Final residual = 4.04461e-13, No Iterations 1
CholeskyCG:  Solving for pB, Initial residual = 0.00012038, Final residual = 9.6292e-06, No Iterations 1
magnetic flux divergence error = 6.11534e-12
BiCGStab:  Solving for Bx, Initial residual = 1.06922e-06, Final residual = 1.06922e-06, No Iterations 0
BiCGStab:  Solving for By, Initial residual = 1.90822e-09, Final residual = 1.90822e-09, No Iterations 0
CholeskyCG:  Solving for pB, Initial residual = 9.62889e-06, Final residual = 9.62889e-06, No Iterations 0
magnetic flux divergence error = 6.11534e-12
Time = 0.012

Courant Number mean: 0.000360237 max: 0.00362553 velocity magnitude: 1.08766
BiCGStab:  Solving for Ux, Initial residual = 0.0373844, Final residual = 2.42206e-10, No Iterations 1
BiCGStab:  Solving for Uy, Initial residual = 0.0501099, Final residual = 4.52643e-10, No Iterations 1
CholeskyCG:  Solving for p, Initial residual = 0.00973184, Final residual = 3.08785e-07, No Iterations 26
time step continuity errors : sum local = 1.16424e-11, global = -2.4382e-13, cumulative = -9.26128e-12
CholeskyCG:  Solving for p, Initial residual = 0.000282743, Final residual = 9.08057e-07, No Iterations 23
time step continuity errors : sum local = 3.31e-11, global = -7.15967e-13, cumulative = -9.97724e-12
CholeskyCG:  Solving for p, Initial residual = 8.59849e-06, Final residual = 8.9654e-07, No Iterations 2
time step continuity errors : sum local = 3.27389e-11, global = -2.98659e-12, cumulative = -1.29638e-11
BiCGStab:  Solving for Bx, Initial residual = 0.0514532, Final residual = 2.39421e-10, No Iterations 1
BiCGStab:  Solving for By, Initial residual = 0.0922859, Final residual = 8.37189e-10, No Iterations 1
CholeskyCG:  Solving for pB, Initial residual = 0.0269206, Final residual = 9.49916e-06, No Iterations 11
magnetic flux divergence error = 6.13331e-12
BiCGStab:  Solving for Bx, Initial residual = 9.37535e-07, Final residual = 9.37535e-07, No Iterations 0
BiCGStab:  Solving for By, Initial residual = 4.4898e-05, Final residual = 3.59643e-13, No Iterations 1
CholeskyCG:  Solving for pB, Initial residual = 0.000126646, Final residual = 9.98246e-06, No Iterations 1
magnetic flux divergence error = 6.55108e-12
BiCGStab:  Solving for Bx, Initial residual = 9.37533e-07, Final residual = 9.37533e-07, No Iterations 0
BiCGStab:  Solving for By, Initial residual = 1.96783e-09, Final residual = 1.96783e-09, No Iterations 0
CholeskyCG:  Solving for pB, Initial residual = 9.98214e-06, Final residual = 9.98214e-06, No Iterations 0
magnetic flux divergence error = 6.55108e-12
Time = 0.0133333

Courant Number mean: 0.000361111 max: 0.00365622 velocity magnitude: 1.09687
BiCGStab:  Solving for Ux, Initial residual = 0.0332694, Final residual = 2.05732e-10, No Iterations 1
BiCGStab:  Solving for Uy, Initial residual = 0.0436278, Final residual = 3.9724e-10, No Iterations 1
CholeskyCG:  Solving for p, Initial residual = 0.00844167, Final residual = 8.96457e-07, No Iterations 25
time step continuity errors : sum local = 3.25626e-11, global = -5.92865e-13, cumulative = -1.35567e-11
CholeskyCG:  Solving for p, Initial residual = 0.00023565, Final residual = 7.51747e-07, No Iterations 23
time step continuity errors : sum local = 2.64761e-11, global = -5.82943e-13, cumulative = -1.41396e-11
CholeskyCG:  Solving for p, Initial residual = 7.21055e-06, Final residual = 7.33973e-07, No Iterations 2
time step continuity errors : sum local = 2.58932e-11, global = -2.71727e-12, cumulative = -1.68569e-11
BiCGStab:  Solving for Bx, Initial residual = 0.045709, Final residual = 1.87578e-10, No Iterations 1
BiCGStab:  Solving for By, Initial residual = 0.0812863, Final residual = 7.42995e-10, No Iterations 1
CholeskyCG:  Solving for pB, Initial residual = 0.0306608, Final residual = 9.65136e-06, No Iterations 6
magnetic flux divergence error = 6.39171e-12
BiCGStab:  Solving for Bx, Initial residual = 8.34147e-07, Final residual = 8.34147e-07, No Iterations 0
BiCGStab:  Solving for By, Initial residual = 4.03466e-05, Final residual = 3.22956e-13, No Iterations 1
CholeskyCG:  Solving for pB, Initial residual = 0.000131063, Final residual = 4.88891e-06, No Iterations 2
magnetic flux divergence error = 3.26709e-12
BiCGStab:  Solving for Bx, Initial residual = 8.3414e-07, Final residual = 8.3414e-07, No Iterations 0
BiCGStab:  Solving for By, Initial residual = 1.98928e-09, Final residual = 1.98928e-09, No Iterations 0
CholeskyCG:  Solving for pB, Initial residual = 4.88873e-06, Final residual = 4.88873e-06, No Iterations 0
magnetic flux divergence error = 3.26709e-12
Time = 0.0146667

Courant Number mean: 0.000361936 max: 0.00368593 velocity magnitude: 1.10578
BiCGStab:  Solving for Ux, Initial residual = 0.0298496, Final residual = 1.77287e-10, No Iterations 1
BiCGStab:  Solving for Uy, Initial residual = 0.0384079, Final residual = 3.5241e-10, No Iterations 1
CholeskyCG:  Solving for p, Initial residual = 0.00745584, Final residual = 7.43047e-07, No Iterations 25
time step continuity errors : sum local = 2.60989e-11, global = -4.50018e-13, cumulative = -1.73069e-11
CholeskyCG:  Solving for p, Initial residual = 0.000198785, Final residual = 6.29663e-07, No Iterations 23
time step continuity errors : sum local = 2.14993e-11, global = -4.82915e-13, cumulative = -1.77898e-11
CholeskyCG:  Solving for p, Initial residual = 6.13679e-06, Final residual = 6.04758e-07, No Iterations 2
time step continuity errors : sum local = 2.06809e-11, global = -2.47324e-12, cumulative = -2.02631e-11
BiCGStab:  Solving for Bx, Initial residual = 0.0411221, Final residual = 1.46913e-10, No Iterations 1
BiCGStab:  Solving for By, Initial residual = 0.0723563, Final residual = 6.66654e-10, No Iterations 1
CholeskyCG:  Solving for pB, Initial residual = 0.0251926, Final residual = 9.26515e-06, No Iterations 6
magnetic flux divergence error = 6.2898e-12
BiCGStab:  Solving for Bx, Initial residual = 7.54018e-07, Final residual = 7.54018e-07, No Iterations 0
BiCGStab:  Solving for By, Initial residual = 3.65705e-05, Final residual = 2.93598e-13, No Iterations 1
CholeskyCG:  Solving for pB, Initial residual = 0.000132695, Final residual = 5.44709e-06, No Iterations 2
magnetic flux divergence error = 3.7556e-12
BiCGStab:  Solving for Bx, Initial residual = 7.54009e-07, Final residual = 7.54009e-07, No Iterations 0
BiCGStab:  Solving for By, Initial residual = 2.00553e-09, Final residual = 2.00553e-09, No Iterations 0
CholeskyCG:  Solving for pB, Initial residual = 5.44689e-06, Final residual = 5.44689e-06, No Iterations 0
magnetic flux divergence error = 3.7556e-12
Time = 0.016

Courant Number mean: 0.000362715 max: 0.00371473 velocity magnitude: 1.11442
BiCGStab:  Solving for Ux, Initial residual = 0.0270157, Final residual = 1.53738e-10, No Iterations 1
BiCGStab:  Solving for Uy, Initial residual = 0.0341065, Final residual = 3.15329e-10, No Iterations 1
CholeskyCG:  Solving for p, Initial residual = 0.0066926, Final residual = 6.2055e-07, No Iterations 25
time step continuity errors : sum local = 2.11438e-11, global = -3.41034e-13, cumulative = -2.06041e-11
CholeskyCG:  Solving for p, Initial residual = 0.000169879, Final residual = 5.32633e-07, No Iterations 23
time step continuity errors : sum local = 1.76826e-11, global = -4.06491e-13, cumulative = -2.10106e-11
CholeskyCG:  Solving for p, Initial residual = 5.29422e-06, Final residual = 5.01245e-07, No Iterations 2
time step continuity errors : sum local = 1.66646e-11, global = -2.25266e-12, cumulative = -2.32633e-11
BiCGStab:  Solving for Bx, Initial residual = 0.0373838, Final residual = 1.16906e-10, No Iterations 1
BiCGStab:  Solving for By, Initial residual = 0.0649486, Final residual = 6.03076e-10, No Iterations 1
CholeskyCG:  Solving for pB, Initial residual = 0.0223944, Final residual = 8.30216e-06, No Iterations 6
magnetic flux divergence error = 5.79735e-12
BiCGStab:  Solving for Bx, Initial residual = 6.87153e-07, Final residual = 6.87153e-07, No Iterations 0
BiCGStab:  Solving for By, Initial residual = 3.33562e-05, Final residual = 2.69401e-13, No Iterations 1
CholeskyCG:  Solving for pB, Initial residual = 0.000133523, Final residual = 5.38065e-06, No Iterations 2
magnetic flux divergence error = 3.80477e-12
BiCGStab:  Solving for Bx, Initial residual = 6.87147e-07, Final residual = 6.87147e-07, No Iterations 0
BiCGStab:  Solving for By, Initial residual = 1.98664e-09, Final residual = 1.98664e-09, No Iterations 0
CholeskyCG:  Solving for pB, Initial residual = 5.38045e-06, Final residual = 5.38045e-06, No Iterations 0
magnetic flux divergence error = 3.80477e-12
Time = 0.0173333

Courant Number mean: 0.000363451 max: 0.00374267 velocity magnitude: 1.1228
BiCGStab:  Solving for Ux, Initial residual = 0.0245934, Final residual = 1.33885e-10, No Iterations 1
BiCGStab:  Solving for Uy, Initial residual = 0.03053, Final residual = 2.84225e-10, No Iterations 1
CholeskyCG:  Solving for p, Initial residual = 0.00607669, Final residual = 5.22691e-07, No Iterations 25
time step continuity errors : sum local = 1.73246e-11, global = -2.5717e-13, cumulative = -2.35204e-11
CholeskyCG:  Solving for p, Initial residual = 0.000149302, Final residual = 4.54502e-07, No Iterations 23
time step continuity errors : sum local = 1.47089e-11, global = -3.47297e-13, cumulative = -2.38677e-11
CholeskyCG:  Solving for p, Initial residual = 4.61976e-06, Final residual = 4.17462e-07, No Iterations 2
time step continuity errors : sum local = 1.35282e-11, global = -2.05297e-12, cumulative = -2.59207e-11
BiCGStab:  Solving for Bx, Initial residual = 0.0342845, Final residual = 1.0539e-10, No Iterations 1
BiCGStab:  Solving for By, Initial residual = 0.0587152, Final residual = 5.49301e-10, No Iterations 1
CholeskyCG:  Solving for pB, Initial residual = 0.0204623, Final residual = 7.56101e-06, No Iterations 6
magnetic flux divergence error = 5.42649e-12
BiCGStab:  Solving for Bx, Initial residual = 6.3219e-07, Final residual = 6.3219e-07, No Iterations 0
BiCGStab:  Solving for By, Initial residual = 3.06679e-05, Final residual = 2.48687e-13, No Iterations 1