/*--------------------------------*- C++ -*----------------------------------*\
| =========                 |                                                 |
| \\      /  F ield         | foam-extend: Open Source CFD                    |
|  \\    /   O peration     | Version:     5.0                                |
|   \\  /    A nd           | Web:         http://www.foam-extend.org         |
|    \\/     M anipulation  | For copyright notice see file Copyright         |
\*---------------------------------------------------------------------------*/
FoamFile
{
    version     2.0;
    format      ascii;
    class       dictionary;
    object      fvSchemes;
}
// * * * * * * * * * * * * * * * * * * * * * * * * * * * * * * * * * * * * * //

ddtSchemes
{
    default Euler;
}

gradSchemes
{
    default         Gauss linear;
    grad(p)         Gauss linear;
    grad((DBU*magSqr(B))) Gauss linear;
}

divSchemes
{
    default         none;
    div(phi,U)      Gauss linear;
    div(phiB,U)     Gauss linear;
    div(phi,B)      Gauss linear;
    div(phiB,((2*DBU)*B)) Gauss linear;
}

laplacianSchemes
{
    default         none;
    laplacian(nu,U) Gauss linear corrected;
    laplacian((1|A(U)),p) Gauss linear corrected;
    laplacian(DB,B) Gauss linear corrected;
    laplacian((1|A(B)),pB) Gauss linear corrected;
}

interpolationSchemes
{
    default         linear;
    interpolate(HbyA) linear;
    interpolate(B)  linear;
}

snGradSchemes
{
    default         corrected;
}

// ************************************************************************* //
/*--------------------------------*- C++ -*----------------------------------*\
| =========                 |                                                 |
| \\      /  F ield         | foam-extend: Open Source CFD                    |
|  \\    /   O peration     | Version:     5.0                                |
|   \\  /    A nd           | Web:         http://www.foam-extend.org         |
|    \\/     M anipulation  | For copyright notice see file Copyright         |
\*---------------------------------------------------------------------------*/
FoamFile
{
    version     2.0;
    format      ascii;
    class       dictionary;
    object      fvSolution;
}
// * * * * * * * * * * * * * * * * * * * * * * * * * * * * * * * * * * * * * //

solvers
{
    p
    {
        solver           CG;
        preconditioner   Cholesky;
        tolerance        1e-06;
        relTol           0;
    }
    U
    {
        solver           BiCGStab;
        preconditioner   DILU;
        tolerance        1e-05;
        relTol           0;
    }
    B
    {
        solver           BiCGStab;
        preconditioner   DILU;
        tolerance        1e-05;
        relTol           0;
    }
    pB
    {
        solver           CG;
        preconditioner   Cholesky;
        tolerance        1e-05;
        relTol           0;
    }
}

PISO
{
    nCorrectors     3;
    nNonOrthogonalCorrectors 0;
}

BPISO
{
    nCorrectors     3;
}

// ************************************************************************* //
/*---------------------------------------------------------------------------*\
| =========                 |                                                 |
| \\      /  F ield         | foam-extend: Open Source CFD                    |
|  \\    /   O peration     | Version:     5.0                                |
|   \\  /    A nd           | Web:         http://www.foam-extend.org         |
|    \\/     M anipulation  | For copyright notice see file Copyright         |
\*---------------------------------------------------------------------------*/
Build  : 5.0-73c2a3d539c2
Exec   : mhdFoam
Date   : Jul 10 2023
Time   : 12:58:03
Host   : "ojm40-OMEN"
PID    : 334662
CtrlDict : "/home/ojm40/foam/ojm40-5.0/work/liquidMetalBattery/run/hartmannMHD/system/controlDict"
Case   : /home/ojm40/foam/ojm40-5.0/work/liquidMetalBattery/run/hartmannMHD
nProcs : 1
sigFpe : Enabling floating point exception trapping (FOAM_SIGFPE).
allowSystemOperations : Disallowing user-supplied system call operations

// * * * * * * * * * * * * * * * * * * * * * * * * * * * * * * * * * * * * * //
Create time

Create mesh for time = 0


PISO: Operating solver in PISO mode

Reading transportProperties

Reading field p

Reading field U

Reading/calculating face flux field phi

Reading field pB

Reading field B

Calculating face flux


Starting time loop
Time = 0.000333333

Courant Number mean: 0 max: 0.00333333 velocity magnitude: 1
BiCGStab:  Solving for Ux, Initial residual = 1, Final residual = 1.39715e-06, No Iterations 1
BiCGStab:  Solving for Uy, Initial residual = 0, Final residual = 0, No Iterations 0
CholeskyCG:  Solving for p, Initial residual = 1, Final residual = 6.8557e-07, No Iterations 107
time step continuity errors : sum local = 1.14262e-11, global = -2.77161e-14, cumulative = -2.77161e-14
CholeskyCG:  Solving for p, Initial residual = 0.0010844, Final residual = 6.47696e-07, No Iterations 91
time step continuity errors : sum local = 2.19305e-09, global = 5.24236e-12, cumulative = 5.21465e-12
CholeskyCG:  Solving for p, Initial residual = 7.48988e-05, Final residual = 6.57386e-07, No Iterations 81
time step continuity errors : sum local = 1.74946e-09, global = 1.09138e-12, cumulative = 6.30603e-12
BiCGStab:  Solving for Bx, Initial residual = 1, Final residual = 9.78261e-07, No Iterations 1
BiCGStab:  Solving for By, Initial residual = 1, Final residual = 1.21173e-06, No Iterations 1
CholeskyCG:  Solving for pB, Initial residual = 1, Final residual = 9.37705e-06, No Iterations 77
magnetic flux divergence error = 4.74101e-13
BiCGStab:  Solving for Bx, Initial residual = 3.58376e-06, Final residual = 3.58376e-06, No Iterations 0
BiCGStab:  Solving for By, Initial residual = 0.000154547, Final residual = 1.65232e-10, No Iterations 1
CholeskyCG:  Solving for pB, Initial residual = 9.95464e-05, Final residual = 7.89414e-06, No Iterations 1
magnetic flux divergence error = 7.98257e-13
BiCGStab:  Solving for Bx, Initial residual = 3.58376e-06, Final residual = 3.58376e-06, No Iterations 0
BiCGStab:  Solving for By, Initial residual = 2.61967e-09, Final residual = 2.61967e-09, No Iterations 0
CholeskyCG:  Solving for pB, Initial residual = 7.89416e-06, Final residual = 7.89416e-06, No Iterations 0
magnetic flux divergence error = 7.98257e-13
Time = 0.000666667

Courant Number mean: 0.000338799 max: 0.00336914 velocity magnitude: 1.01969
BiCGStab:  Solving for Ux, Initial residual = 0.971393, Final residual = 9.81823e-08, No Iterations 1
BiCGStab:  Solving for Uy, Initial residual = 0.333441, Final residual = 3.94073e-07, No Iterations 1
CholeskyCG:  Solving for p, Initial residual = 0.00624738, Final residual = 5.77927e-07, No Iterations 95
time step continuity errors : sum local = 1.52974e-09, global = 1.21976e-11, cumulative = 1.85037e-11
CholeskyCG:  Solving for p, Initial residual = 0.00519029, Final residual = 8.25003e-07, No Iterations 94
time step continuity errors : sum local = 5.77326e-10, global = -5.09637e-13, cumulative = 1.7994e-11
CholeskyCG:  Solving for p, Initial residual = 0.00626638, Final residual = 5.84345e-07, No Iterations 91
time step continuity errors : sum local = 1.60574e-11, global = -1.74994e-13, cumulative = 1.7819e-11
BiCGStab:  Solving for Bx, Initial residual = 0.294887, Final residual = 2.43126e-07, No Iterations 1
BiCGStab:  Solving for By, Initial residual = 0.456406, Final residual = 5.61654e-07, No Iterations 1
CholeskyCG:  Solving for pB, Initial residual = 0.246701, Final residual = 9.62823e-06, No Iterations 32
magnetic flux divergence error = 1.21771e-12
BiCGStab:  Solving for Bx, Initial residual = 1.55684e-06, Final residual = 1.55684e-06, No Iterations 0
BiCGStab:  Solving for By, Initial residual = 9.8268e-05, Final residual = 1.08879e-10, No Iterations 1
CholeskyCG:  Solving for pB, Initial residual = 0.00012143, Final residual = 4.812e-06, No Iterations 2
magnetic flux divergence error = 7.30601e-13
BiCGStab:  Solving for Bx, Initial residual = 1.55683e-06, Final residual = 1.55683e-06, No Iterations 0
BiCGStab:  Solving for By, Initial residual = 3.03657e-09, Final residual = 3.03657e-09, No Iterations 0
CholeskyCG:  Solving for pB, Initial residual = 4.81189e-06, Final residual = 4.81189e-06, No Iterations 0
magnetic flux divergence error = 7.30601e-13
Time = 0.001

Courant Number mean: 0.000339966 max: 0.00340016 velocity magnitude: 1.03191
BiCGStab:  Solving for Ux, Initial residual = 0.148324, Final residual = 1.65661e-07, No Iterations 1
BiCGStab:  Solving for Uy, Initial residual = 0.183782, Final residual = 2.2773e-07, No Iterations 1
CholeskyCG:  Solving for p, Initial residual = 0.0279686, Final residual = 6.96068e-07, No Iterations 94
time step continuity errors : sum local = 1.98512e-11, global = -1.74141e-13, cumulative = 1.76449e-11
CholeskyCG:  Solving for p, Initial residual = 0.00382268, Final residual = 7.72862e-07, No Iterations 90
time step continuity errors : sum local = 1.84304e-11, global = -1.31385e-13, cumulative = 1.75135e-11
CholeskyCG:  Solving for p, Initial residual = 0.000341652, Final residual = 9.72168e-07, No Iterations 8
time step continuity errors : sum local = 2.40816e-11, global = -9.66221e-12, cumulative = 7.8513e-12
BiCGStab:  Solving for Bx, Initial residual = 0.165801, Final residual = 8.90935e-08, No Iterations 1
BiCGStab:  Solving for By, Initial residual = 0.283595, Final residual = 3.56006e-07, No Iterations 1
CholeskyCG:  Solving for pB, Initial residual = 0.134641, Final residual = 8.72165e-06, No Iterations 21
magnetic flux divergence error = 1.4852e-12
BiCGStab:  Solving for Bx, Initial residual = 9.20266e-07, Final residual = 9.20266e-07, No Iterations 0
BiCGStab:  Solving for By, Initial residual = 7.09835e-05, Final residual = 8.19424e-11, No Iterations 1
CholeskyCG:  Solving for pB, Initial residual = 0.00012759, Final residual = 4.97824e-06, No Iterations 2
magnetic flux divergence error = 9.39641e-13
BiCGStab:  Solving for Bx, Initial residual = 9.20237e-07, Final residual = 9.20237e-07, No Iterations 0
BiCGStab:  Solving for By, Initial residual = 3.24228e-09, Final residual = 3.24228e-09, No Iterations 0
CholeskyCG:  Solving for pB, Initial residual = 4.97811e-06, Final residual = 4.97811e-06, No Iterations 0
magnetic flux divergence error = 9.39641e-13
Time = 0.00133333

Courant Number mean: 0.000340939 max: 0.00342654 velocity magnitude: 1.04219
BiCGStab:  Solving for Ux, Initial residual = 0.101393, Final residual = 9.242e-08, No Iterations 1
BiCGStab:  Solving for Uy, Initial residual = 0.121864, Final residual = 1.54191e-07, No Iterations 1
CholeskyCG:  Solving for p, Initial residual = 0.0204996, Final residual = 7.52682e-07, No Iterations 93
time step continuity errors : sum local = 1.83689e-11, global = -1.50491e-13, cumulative = 7.70081e-12
CholeskyCG:  Solving for p, Initial residual = 0.00266676, Final residual = 8.12248e-07, No Iterations 89
time step continuity errors : sum local = 1.71277e-11, global = 1.02161e-13, cumulative = 7.80297e-12
CholeskyCG:  Solving for p, Initial residual = 0.000241327, Final residual = 8.89624e-07, No Iterations 7
time step continuity errors : sum local = 1.93537e-11, global = -7.0512e-12, cumulative = 7.51769e-13
BiCGStab:  Solving for Bx, Initial residual = 0.114074, Final residual = 5.43332e-08, No Iterations 1
BiCGStab:  Solving for By, Initial residual = 0.200921, Final residual = 2.58098e-07, No Iterations 1
CholeskyCG:  Solving for pB, Initial residual = 0.0907062, Final residual = 9.85269e-06, No Iterations 20
magnetic flux divergence error = 2.00542e-12
BiCGStab:  Solving for Bx, Initial residual = 6.50421e-07, Final residual = 6.50421e-07, No Iterations 0
BiCGStab:  Solving for By, Initial residual = 5.54177e-05, Final residual = 6.6273e-11, No Iterations 1
CholeskyCG:  Solving for pB, Initial residual = 0.000131214, Final residual = 5.75588e-06, No Iterations 2
magnetic flux divergence error = 1.25669e-12
BiCGStab:  Solving for Bx, Initial residual = 6.50384e-07, Final residual = 6.50384e-07, No Iterations 0
BiCGStab:  Solving for By, Initial residual = 3.29507e-09, Final residual = 3.29507e-09, No Iterations 0
CholeskyCG:  Solving for pB, Initial residual = 5.75574e-06, Final residual = 5.75574e-06, No Iterations 0
magnetic flux divergence error = 1.25669e-12
Time = 0.00166667

Courant Number mean: 0.000341784 max: 0.00344994 velocity magnitude: 1.051
BiCGStab:  Solving for Ux, Initial residual = 0.075415, Final residual = 5.46127e-08, No Iterations 1
BiCGStab:  Solving for Uy, Initial residual = 0.0888441, Final residual = 1.13979e-07, No Iterations 1
CholeskyCG:  Solving for p, Initial residual = 0.0157857, Final residual = 9.29906e-07, No Iterations 91
time step continuity errors : sum local = 2.0011e-11, global = 2.15507e-13, cumulative = 9.67277e-13
CholeskyCG:  Solving for p, Initial residual = 0.00192106, Final residual = 7.46862e-07, No Iterations 88
time step continuity errors : sum local = 1.42808e-11, global = 1.75789e-13, cumulative = 1.14307e-12
CholeskyCG:  Solving for p, Initial residual = 0.000178, Final residual = 9.55573e-07, No Iterations 6
time step continuity errors : sum local = 1.87373e-11, global = -5.15684e-12, cumulative = -4.01377e-12
BiCGStab:  Solving for Bx, Initial residual = 0.0871666, Final residual = 5.10746e-08, No Iterations 1
BiCGStab:  Solving for By, Initial residual = 0.152948, Final residual = 2.01047e-07, No Iterations 1
CholeskyCG:  Solving for pB, Initial residual = 0.0727442, Final residual = 9.08123e-06, No Iterations 25
magnetic flux divergence error = 2.07277e-12
BiCGStab:  Solving for Bx, Initial residual = 5.04862e-07, Final residual = 5.04862e-07, No Iterations 0
BiCGStab:  Solving for By, Initial residual = 4.53044e-05, Final residual = 5.55346e-11, No Iterations 1
CholeskyCG:  Solving for pB, Initial residual = 0.000142556, Final residual = 5.92446e-06, No Iterations 2
magnetic flux divergence error = 1.41099e-12
BiCGStab:  Solving for Bx, Initial residual = 5.04832e-07, Final residual = 5.04832e-07, No Iterations 0
BiCGStab:  Solving for By, Initial residual = 3.20241e-09, Final residual = 3.20241e-09, No Iterations 0
CholeskyCG:  Solving for pB, Initial residual = 5.92434e-06, Final residual = 5.92434e-06, No Iterations 0
magnetic flux divergence error = 1.41099e-12
Time = 0.002

Courant Number mean: 0.000342532 max: 0.00347116 velocity magnitude: 1.05727
BiCGStab:  Solving for Ux, Initial residual = 0.0591593, Final residual = 3.35485e-08, No Iterations 1
BiCGStab:  Solving for Uy, Initial residual = 0.0688215, Final residual = 8.9014e-08, No Iterations 1
CholeskyCG:  Solving for p, Initial residual = 0.0126663, Final residual = 6.35178e-07, No Iterations 91
time step continuity errors : sum local = 1.23513e-11, global = 1.3101e-13, cumulative = -3.88276e-12
CholeskyCG:  Solving for p, Initial residual = 0.00142589, Final residual = 8.78131e-07, No Iterations 87
time step continuity errors : sum local = 1.55236e-11, global = 1.68089e-14, cumulative = -3.86596e-12
CholeskyCG:  Solving for p, Initial residual = 0.000136781, Final residual = 6.49226e-07, No Iterations 6
time step continuity errors : sum local = 1.1711e-11, global = -3.8243e-12, cumulative = -7.69026e-12
BiCGStab:  Solving for Bx, Initial residual = 0.071042, Final residual = 4.59078e-08, No Iterations 1
BiCGStab:  Solving for By, Initial residual = 0.123798, Final residual = 1.63455e-07, No Iterations 1
CholeskyCG:  Solving for pB, Initial residual = 0.0594812, Final residual = 9.87893e-06, No Iterations 24
magnetic flux divergence error = 2.46324e-12
BiCGStab:  Solving for Bx, Initial residual = 4.14063e-07, Final residual = 4.14063e-07, No Iterations 0
BiCGStab:  Solving for By, Initial residual = 3.83522e-05, Final residual = 4.83922e-11, No Iterations 1
CholeskyCG:  Solving for pB, Initial residual = 0.000146211, Final residual = 6.56251e-06, No Iterations 2
magnetic flux divergence error = 1.70971e-12
BiCGStab:  Solving for Bx, Initial residual = 4.14042e-07, Final residual = 4.14042e-07, No Iterations 0
BiCGStab:  Solving for By, Initial residual = 3.1255e-09, Final residual = 3.1255e-09, No Iterations 0
CholeskyCG:  Solving for pB, Initial residual = 6.56228e-06, Final residual = 6.56228e-06, No Iterations 0
magnetic flux divergence error = 1.70971e-12
Time = 0.00233333

Courant Number mean: 0.000343207 max: 0.00349077 velocity magnitude: 1.06276
BiCGStab:  Solving for Ux, Initial residual = 0.0485749, Final residual = 2.34668e-08, No Iterations 1
BiCGStab:  Solving for Uy, Initial residual = 0.0556485, Final residual = 7.22531e-08, No Iterations 1
CholeskyCG:  Solving for p, Initial residual = 0.010454, Final residual = 7.54085e-07, No Iterations 90
time step continuity errors : sum local = 1.35128e-11, global = 4.72776e-15, cumulative = -7.68553e-12
CholeskyCG:  Solving for p, Initial residual = 0.00109797, Final residual = 6.29996e-07, No Iterations 87
time step continuity errors : sum local = 1.04544e-11, global = 8.72821e-15, cumulative = -7.6768e-12
CholeskyCG:  Solving for p, Initial residual = 0.000108133, Final residual = 6.84963e-07, No Iterations 5
time step continuity errors : sum local = 1.15515e-11, global = -2.86159e-12, cumulative = -1.05384e-11
BiCGStab:  Solving for Bx, Initial residual = 0.060417, Final residual = 3.90829e-08, No Iterations 1
BiCGStab:  Solving for By, Initial residual = 0.103984, Final residual = 1.37364e-07, No Iterations 1
CholeskyCG:  Solving for pB, Initial residual = 0.0584123, Final residual = 9.28713e-06, No Iterations 21
magnetic flux divergence error = 2.50719e-12
BiCGStab:  Solving for Bx, Initial residual = 3.46475e-07, Final residual = 3.46475e-07, No Iterations 0
BiCGStab:  Solving for By, Initial residual = 3.32659e-05, Final residual = 4.29198e-11, No Iterations 1
CholeskyCG:  Solving for pB, Initial residual = 0.000146566, Final residual = 7.24302e-06, No Iterations 2
magnetic flux divergence error = 2.0237e-12
BiCGStab:  Solving for Bx, Initial residual = 3.46454e-07, Final residual = 3.46454e-07, No Iterations 0
BiCGStab:  Solving for By, Initial residual = 2.98271e-09, Final residual = 2.98271e-09, No Iterations 0
CholeskyCG:  Solving for pB, Initial residual = 7.24279e-06, Final residual = 7.24279e-06, No Iterations 0
magnetic flux divergence error = 2.0237e-12
Time = 0.00266667

Courant Number mean: 0.000343826 max: 0.00350915 velocity magnitude: 1.06745
BiCGStab:  Solving for Ux, Initial residual = 0.0409787, Final residual = 1.82543e-08, No Iterations 1
BiCGStab:  Solving for Uy, Initial residual = 0.0464647, Final residual = 6.0352e-08, No Iterations 1
CholeskyCG:  Solving for p, Initial residual = 0.00879269, Final residual = 8.42437e-07, No Iterations 89
time step continuity errors : sum local = 1.41312e-11, global = -1.74065e-13, cumulative = -1.07125e-11
CholeskyCG:  Solving for p, Initial residual = 0.000888852, Final residual = 9.37908e-07, No Iterations 85
time step continuity errors : sum local = 1.47861e-11, global = -2.18527e-13, cumulative = -1.0931e-11
CholeskyCG:  Solving for p, Initial residual = 8.76545e-05, Final residual = 9.83294e-07, No Iterations 4
time step continuity errors : sum local = 1.57037e-11, global = -2.16976e-12, cumulative = -1.31007e-11
BiCGStab:  Solving for Bx, Initial residual = 0.0529078, Final residual = 3.27835e-08, No Iterations 1
BiCGStab:  Solving for By, Initial residual = 0.0893848, Final residual = 1.17961e-07, No Iterations 1
CholeskyCG:  Solving for pB, Initial residual = 0.0585752, Final residual = 9.94917e-06, No Iterations 25
magnetic flux divergence error = 2.86354e-12
BiCGStab:  Solving for Bx, Initial residual = 2.94592e-07, Final residual = 2.94592e-07, No Iterations 0
BiCGStab:  Solving for By, Initial residual = 2.93718e-05, Final residual = 3.85641e-11, No Iterations 1
CholeskyCG:  Solving for pB, Initial residual = 0.000146366, Final residual = 7.18383e-06, No Iterations 2
magnetic flux divergence error = 2.12808e-12
BiCGStab:  Solving for Bx, Initial residual = 2.9457e-07, Final residual = 2.9457e-07, No Iterations 0
BiCGStab:  Solving for By, Initial residual = 2.82241e-09, Final residual = 2.82241e-09, No Iterations 0
CholeskyCG:  Solving for pB, Initial residual = 7.18364e-06, Final residual = 7.18364e-06, No Iterations 0
magnetic flux divergence error = 2.12808e-12
Time = 0.003

Courant Number mean: 0.0003444 max: 0.00352661 velocity magnitude: 1.07266
BiCGStab:  Solving for Ux, Initial residual = 0.0354671, Final residual = 1.61098e-08, No Iterations 1
BiCGStab:  Solving for Uy, Initial residual = 0.0397614, Final residual = 5.15868e-08, No Iterations 1
CholeskyCG:  Solving for p, Initial residual = 0.0076966, Final residual = 8.93433e-07, No Iterations 88
time step continuity errors : sum local = 1.42053e-11, global = -1.54199e-13, cumulative = -1.32549e-11
CholeskyCG:  Solving for p, Initial residual = 0.000738117, Final residual = 9.30109e-07, No Iterations 84
time step continuity errors : sum local = 1.40626e-11, global = 2.90155e-14, cumulative = -1.32259e-11
CholeskyCG:  Solving for p, Initial residual = 7.22613e-05, Final residual = 7.76273e-07, No Iterations 4
time step continuity errors : sum local = 1.18597e-11, global = -1.66415e-12, cumulative = -1.48901e-11
BiCGStab:  Solving for Bx, Initial residual = 0.0473085, Final residual = 2.73889e-08, No Iterations 1
BiCGStab:  Solving for By, Initial residual = 0.0778383, Final residual = 1.02544e-07, No Iterations 1
CholeskyCG:  Solving for pB, Initial residual = 0.0517461, Final residual = 9.93206e-06, No Iterations 24
magnetic flux divergence error = 3.02911e-12
BiCGStab:  Solving for Bx, Initial residual = 2.5749e-07, Final residual = 2.5749e-07, No Iterations 0
BiCGStab:  Solving for By, Initial residual = 2.61458e-05, Final residual = 3.4955e-11, No Iterations 1
CholeskyCG:  Solving for pB, Initial residual = 0.000141871, Final residual = 7.53534e-06, No Iterations 2
magnetic flux divergence error = 2.36408e-12
BiCGStab:  Solving for Bx, Initial residual = 2.57476e-07, Final residual = 2.57476e-07, No Iterations 0
BiCGStab:  Solving for By, Initial residual = 2.69876e-09, Final residual = 2.69876e-09, No Iterations 0
CholeskyCG:  Solving for pB, Initial residual = 7.53517e-06, Final residual = 7.53517e-06, No Iterations 0
magnetic flux divergence error = 2.36408e-12
Time = 0.00333333

Courant Number mean: 0.000344938 max: 0.00354335 velocity magnitude: 1.07746
BiCGStab:  Solving for Ux, Initial residual = 0.0316193, Final residual = 1.43685e-08, No Iterations 1
BiCGStab:  Solving for Uy, Initial residual = 0.0347034, Final residual = 4.49363e-08, No Iterations 1
CholeskyCG:  Solving for p, Initial residual = 0.0070588, Final residual = 6.68606e-07, No Iterations 88
time step continuity errors : sum local = 1.01765e-11, global = -1.19194e-13, cumulative = -1.50093e-11
CholeskyCG:  Solving for p, Initial residual = 0.000624131, Final residual = 6.95344e-07, No Iterations 84
time step continuity errors : sum local = 1.01578e-11, global = 2.17352e-14, cumulative = -1.49875e-11
CholeskyCG:  Solving for p, Initial residual = 6.09233e-05, Final residual = 6.18575e-07, No Iterations 4
time step continuity errors : sum local = 9.11294e-12, global = -1.30028e-12, cumulative = -1.62878e-11
BiCGStab:  Solving for Bx, Initial residual = 0.0429487, Final residual = 2.2823e-08, No Iterations 1
BiCGStab:  Solving for By, Initial residual = 0.0684113, Final residual = 9.01036e-08, No Iterations 1
CholeskyCG:  Solving for pB, Initial residual = 0.0433628, Final residual = 9.0528e-06, No Iterations 26
magnetic flux divergence error = 2.91491e-12
BiCGStab:  Solving for Bx, Initial residual = 2.27244e-07, Final residual = 2.27244e-07, No Iterations 0
BiCGStab:  Solving for By, Initial residual = 2.34708e-05, Final residual = 3.18733e-11, No Iterations 1
CholeskyCG:  Solving for pB, Initial residual = 0.000137476, Final residual = 7.69832e-06, No Iterations 2
magnetic flux divergence error = 2.54237e-12
BiCGStab:  Solving for Bx, Initial residual = 2.27225e-07, Final residual = 2.27225e-07, No Iterations 0
BiCGStab:  Solving for By, Initial residual = 2.58465e-09, Final residual = 2.58465e-09, No Iterations 0
CholeskyCG:  Solving for pB, Initial residual = 7.69807e-06, Final residual = 7.69807e-06, No Iterations 0
magnetic flux divergence error = 2.54237e-12
Time = 0.00366667

Courant Number mean: 0.000345446 max: 0.00355953 velocity magnitude: 1.08137
BiCGStab:  Solving for Ux, Initial residual = 0.0284371, Final residual = 1.26345e-08, No Iterations 1
BiCGStab:  Solving for Uy, Initial residual = 0.0308565, Final residual = 3.96983e-08, No Iterations 1
CholeskyCG:  Solving for p, Initial residual = 0.00650027, Final residual = 8.05365e-07, No Iterations 87
time step continuity errors : sum local = 1.18265e-11, global = 2.44017e-14, cumulative = -1.62634e-11
CholeskyCG:  Solving for p, Initial residual = 0.000535524, Final residual = 5.2306e-07, No Iterations 84
time step continuity errors : sum local = 7.42658e-12, global = 1.57585e-14, cumulative = -1.62476e-11
CholeskyCG:  Solving for p, Initial residual = 5.19448e-05, Final residual = 8.79157e-07, No Iterations 3
time step continuity errors : sum local = 1.25687e-11, global = -9.99422e-13, cumulative = -1.72471e-11
BiCGStab:  Solving for Bx, Initial residual = 0.039434, Final residual = 1.89515e-08, No Iterations 1
BiCGStab:  Solving for By, Initial residual = 0.0607603, Final residual = 8.01037e-08, No Iterations 1
CholeskyCG:  Solving for pB, Initial residual = 0.0434704, Final residual = 9.22496e-06, No Iterations 26
magnetic flux divergence error = 3.12045e-12
BiCGStab:  Solving for Bx, Initial residual = 2.01926e-07, Final residual = 2.01926e-07, No Iterations 0
BiCGStab:  Solving for By, Initial residual = 2.12392e-05, Final residual = 2.92314e-11, No Iterations 1
CholeskyCG:  Solving for pB, Initial residual = 0.000132788, Final residual = 7.90998e-06, No Iterations 2
magnetic flux divergence error = 2.73901e-12
BiCGStab:  Solving for Bx, Initial residual = 2.01907e-07, Final residual = 2.01907e-07, No Iterations 0
BiCGStab:  Solving for By, Initial residual = 2.47889e-09, Final residual = 2.47889e-09, No Iterations 0
CholeskyCG:  Solving for pB, Initial residual = 7.90976e-06, Final residual = 7.90976e-06, No Iterations 0
magnetic flux divergence error = 2.73901e-12
Time = 0.004

Courant Number mean: 0.00034593 max: 0.00357527 velocity magnitude: 1.08438
BiCGStab:  Solving for Ux, Initial residual = 0.0256972, Final residual = 1.10513e-08, No Iterations 1
BiCGStab:  Solving for Uy, Initial residual = 0.0278117, Final residual = 3.54508e-08, No Iterations 1
CholeskyCG:  Solving for p, Initial residual = 0.00598459, Final residual = 8.54289e-07, No Iterations 86
time step continuity errors : sum local = 1.21789e-11, global = 1.0118e-13, cumulative = -1.71459e-11
CholeskyCG:  Solving for p, Initial residual = 0.000465229, Final residual = 8.24199e-07, No Iterations 83
time step continuity errors : sum local = 1.14277e-11, global = 1.57554e-13, cumulative = -1.69883e-11
CholeskyCG:  Solving for p, Initial residual = 4.48401e-05, Final residual = 7.92593e-07, No Iterations 3
time step continuity errors : sum local = 1.10515e-11, global = -7.68355e-13, cumulative = -1.77567e-11
BiCGStab:  Solving for Bx, Initial residual = 0.0365222, Final residual = 1.57081e-08, No Iterations 1
BiCGStab:  Solving for By, Initial residual = 0.0545857, Final residual = 7.19256e-08, No Iterations 1
CholeskyCG:  Solving for pB, Initial residual = 0.0387013, Final residual = 9.52185e-06, No Iterations 21
magnetic flux divergence error = 3.37357e-12
BiCGStab:  Solving for Bx, Initial residual = 1.82404e-07, Final residual = 1.82404e-07, No Iterations 0
BiCGStab:  Solving for By, Initial residual = 1.94786e-05, Final residual = 2.70301e-11, No Iterations 1
CholeskyCG:  Solving for pB, Initial residual = 0.00012723, Final residual = 8.57461e-06, No Iterations 2
magnetic flux divergence error = 3.10677e-12
BiCGStab:  Solving for Bx, Initial residual = 1.82387e-07, Final residual = 1.82387e-07, No Iterations 0
BiCGStab:  Solving for By, Initial residual = 2.37658e-09, Final residual = 2.37658e-09, No Iterations 0
CholeskyCG:  Solving for pB, Initial residual = 8.57439e-06, Final residual = 8.57439e-06, No Iterations 0
magnetic flux divergence error = 3.10677e-12
Time = 0.00433333

Courant Number mean: 0.000346391 max: 0.00359066 velocity magnitude: 1.08802
BiCGStab:  Solving for Ux, Initial residual = 0.0235464, Final residual = 9.69025e-09, No Iterations 1
BiCGStab:  Solving for Uy, Initial residual = 0.0253119, Final residual = 3.19594e-08, No Iterations 1
CholeskyCG:  Solving for p, Initial residual = 0.00551005, Final residual = 8.32828e-07, No Iterations 85
time step continuity errors : sum local = 1.15837e-11, global = 1.16365e-14, cumulative = -1.77451e-11
CholeskyCG:  Solving for p, Initial residual = 0.00041238, Final residual = 6.22158e-07, No Iterations 83
time step continuity errors : sum local = 8.45589e-12, global = 9.84531e-14, cumulative = -1.76466e-11
CholeskyCG:  Solving for p, Initial residual = 3.87283e-05, Final residual = 7.19903e-07, No Iterations 3
time step continuity errors : sum local = 9.82979e-12, global = -6.30543e-13, cumulative = -1.82771e-11
BiCGStab:  Solving for Bx, Initial residual = 0.0340592, Final residual = 1.30279e-08, No Iterations 1
BiCGStab:  Solving for By, Initial residual = 0.0498602, Final residual = 6.51035e-08, No Iterations 1
CholeskyCG:  Solving for pB, Initial residual = 0.0385346, Final residual = 9.0846e-06, No Iterations 26
magnetic flux divergence error = 3.36012e-12
BiCGStab:  Solving for Bx, Initial residual = 1.64402e-07, Final residual = 1.64402e-07, No Iterations 0
BiCGStab:  Solving for By, Initial residual = 1.79464e-05, Final residual = 2.50185e-11, No Iterations 1