/*--------------------------------*- C++ -*----------------------------------*\
| =========                 |                                                 |
| \\      /  F ield         | foam-extend: Open Source CFD                    |
|  \\    /   O peration     | Version:     5.0                                |
|   \\  /    A nd           | Web:         http://www.foam-extend.org         |
|    \\/     M anipulation  | For copyright notice see file Copyright         |
\*---------------------------------------------------------------------------*/
FoamFile
{
    version     2.0;
    format      ascii;
    class       dictionary;
    object      fvSchemes;
}
// * * * * * * * * * * * * * * * * * * * * * * * * * * * * * * * * * * * * * //

ddtSchemes
{
    default Euler;
}

gradSchemes
{
    default         Gauss linear;
    grad(p)         Gauss linear;
    grad((DBU*magSqr(B))) Gauss linear;
}

divSchemes
{
    default         none;
    div(phi,U)      Gauss linear;
    div(phiB,U)     Gauss linear;
    div(phi,B)      Gauss linear;
    div(phiB,((2*DBU)*B)) Gauss linear;
}

laplacianSchemes
{
    default         none;
    laplacian(nu,U) Gauss linear corrected;
    laplacian((1|A(U)),p) Gauss linear corrected;
    laplacian(DB,B) Gauss linear corrected;
    laplacian((1|A(B)),pB) Gauss linear corrected;
}

interpolationSchemes
{
    default         linear;
    interpolate(HbyA) linear;
    interpolate(B)  linear;
}

snGradSchemes
{
    default         corrected;
}

// ************************************************************************* //
/*--------------------------------*- C++ -*----------------------------------*\
| =========                 |                                                 |
| \\      /  F ield         | foam-extend: Open Source CFD                    |
|  \\    /   O peration     | Version:     5.0                                |
|   \\  /    A nd           | Web:         http://www.foam-extend.org         |
|    \\/     M anipulation  | For copyright notice see file Copyright         |
\*---------------------------------------------------------------------------*/
FoamFile
{
    version     2.0;
    format      ascii;
    class       dictionary;
    object      fvSolution;
}
// * * * * * * * * * * * * * * * * * * * * * * * * * * * * * * * * * * * * * //

solvers
{
    p
    {
        solver           CG;
        preconditioner   Cholesky;
        tolerance        1e-06;
        relTol           0;
    }
    U
    {
        solver           BiCGStab;
        preconditioner   DILU;
        tolerance        1e-05;
        relTol           0;
    }
    B
    {
        solver           BiCGStab;
        preconditioner   DILU;
        tolerance        1e-05;
        relTol           0;
    }
    pB
    {
        solver           CG;
        preconditioner   Cholesky;
        tolerance        1e-05;
        relTol           0;
    }
}

PISO
{
    nCorrectors     3;
    nNonOrthogonalCorrectors 0;
}

BPISO
{
    nCorrectors     3;
}

// ************************************************************************* //
/*---------------------------------------------------------------------------*\
| =========                 |                                                 |
| \\      /  F ield         | foam-extend: Open Source CFD                    |
|  \\    /   O peration     | Version:     5.0                                |
|   \\  /    A nd           | Web:         http://www.foam-extend.org         |
|    \\/     M anipulation  | For copyright notice see file Copyright         |
\*---------------------------------------------------------------------------*/
Build  : 5.0-73c2a3d539c2
Exec   : mhdFoam
Date   : Jul 10 2023
Time   : 11:42:05
Host   : "ojm40-OMEN"
PID    : 333034
CtrlDict : "/home/ojm40/foam/ojm40-5.0/work/liquidMetalBattery/run/hartmannMHD/system/controlDict"
Case   : /home/ojm40/foam/ojm40-5.0/work/liquidMetalBattery/run/hartmannMHD
nProcs : 1
sigFpe : Enabling floating point exception trapping (FOAM_SIGFPE).
allowSystemOperations : Disallowing user-supplied system call operations

// * * * * * * * * * * * * * * * * * * * * * * * * * * * * * * * * * * * * * //
Create time

Create mesh for time = 0


PISO: Operating solver in PISO mode

Reading transportProperties

Reading field p

Reading field U

Reading/calculating face flux field phi

Reading field pB

Reading field B

Calculating face flux


Starting time loop
Time = 0.000333333

Courant Number mean: 0 max: 0.00333333 velocity magnitude: 1
BiCGStab:  Solving for Ux, Initial residual = 1, Final residual = 1.39715e-06, No Iterations 1
BiCGStab:  Solving for Uy, Initial residual = 0, Final residual = 0, No Iterations 0
CholeskyCG:  Solving for p, Initial residual = 1, Final residual = 6.8557e-07, No Iterations 107
time step continuity errors : sum local = 1.14262e-11, global = -2.77161e-14, cumulative = -2.77161e-14
CholeskyCG:  Solving for p, Initial residual = 0.0010844, Final residual = 6.47696e-07, No Iterations 91
time step continuity errors : sum local = 2.19305e-09, global = 5.24236e-12, cumulative = 5.21465e-12
CholeskyCG:  Solving for p, Initial residual = 7.48988e-05, Final residual = 6.57386e-07, No Iterations 81
time step continuity errors : sum local = 1.74946e-09, global = 1.09138e-12, cumulative = 6.30603e-12
BiCGStab:  Solving for Bx, Initial residual = 1, Final residual = 9.78261e-07, No Iterations 1
BiCGStab:  Solving for By, Initial residual = 1, Final residual = 1.21173e-06, No Iterations 1
CholeskyCG:  Solving for pB, Initial residual = 1, Final residual = 9.37705e-06, No Iterations 77
magnetic flux divergence error = 2.3705e-14
BiCGStab:  Solving for Bx, Initial residual = 3.58376e-06, Final residual = 3.58376e-06, No Iterations 0
BiCGStab:  Solving for By, Initial residual = 0.000154547, Final residual = 1.65232e-10, No Iterations 1
CholeskyCG:  Solving for pB, Initial residual = 9.95464e-05, Final residual = 7.89414e-06, No Iterations 1
magnetic flux divergence error = 3.99129e-14
BiCGStab:  Solving for Bx, Initial residual = 3.58376e-06, Final residual = 3.58376e-06, No Iterations 0
BiCGStab:  Solving for By, Initial residual = 2.56999e-09, Final residual = 2.56999e-09, No Iterations 0
CholeskyCG:  Solving for pB, Initial residual = 7.89416e-06, Final residual = 7.89416e-06, No Iterations 0
magnetic flux divergence error = 3.99129e-14
Time = 0.000666667

Courant Number mean: 0.000338799 max: 0.00336914 velocity magnitude: 1.01969
BiCGStab:  Solving for Ux, Initial residual = 0.971389, Final residual = 9.67137e-08, No Iterations 1
BiCGStab:  Solving for Uy, Initial residual = 0.332394, Final residual = 3.92462e-07, No Iterations 1
CholeskyCG:  Solving for p, Initial residual = 0.00624672, Final residual = 5.78051e-07, No Iterations 95
time step continuity errors : sum local = 1.53007e-09, global = 1.22018e-11, cumulative = 1.85079e-11
CholeskyCG:  Solving for p, Initial residual = 0.00518896, Final residual = 8.24702e-07, No Iterations 94
time step continuity errors : sum local = 5.77291e-10, global = -5.07391e-13, cumulative = 1.80005e-11
CholeskyCG:  Solving for p, Initial residual = 0.00630603, Final residual = 5.88079e-07, No Iterations 91
time step continuity errors : sum local = 1.60586e-11, global = -1.75006e-13, cumulative = 1.78255e-11
BiCGStab:  Solving for Bx, Initial residual = 0.294874, Final residual = 2.40596e-07, No Iterations 1
BiCGStab:  Solving for By, Initial residual = 0.455027, Final residual = 5.59595e-07, No Iterations 1
CholeskyCG:  Solving for pB, Initial residual = 0.246575, Final residual = 9.6323e-06, No Iterations 32
magnetic flux divergence error = 6.09303e-14
BiCGStab:  Solving for Bx, Initial residual = 1.55674e-06, Final residual = 1.55674e-06, No Iterations 0
BiCGStab:  Solving for By, Initial residual = 9.91438e-05, Final residual = 1.09625e-10, No Iterations 1
CholeskyCG:  Solving for pB, Initial residual = 0.000123314, Final residual = 4.81862e-06, No Iterations 2
magnetic flux divergence error = 3.65994e-14
BiCGStab:  Solving for Bx, Initial residual = 1.55672e-06, Final residual = 1.55672e-06, No Iterations 0
BiCGStab:  Solving for By, Initial residual = 3.06561e-09, Final residual = 3.06561e-09, No Iterations 0
CholeskyCG:  Solving for pB, Initial residual = 4.8185e-06, Final residual = 4.8185e-06, No Iterations 0
magnetic flux divergence error = 3.65994e-14
Time = 0.001

Courant Number mean: 0.000339963 max: 0.00339995 velocity magnitude: 1.03294
BiCGStab:  Solving for Ux, Initial residual = 0.150231, Final residual = 1.7893e-07, No Iterations 1
BiCGStab:  Solving for Uy, Initial residual = 0.181815, Final residual = 2.25265e-07, No Iterations 1
CholeskyCG:  Solving for p, Initial residual = 0.0279129, Final residual = 7.03023e-07, No Iterations 94
time step continuity errors : sum local = 1.99219e-11, global = -1.70001e-13, cumulative = 1.76555e-11
CholeskyCG:  Solving for p, Initial residual = 0.00388964, Final residual = 7.83835e-07, No Iterations 90
time step continuity errors : sum local = 1.82954e-11, global = -1.31295e-13, cumulative = 1.75242e-11
CholeskyCG:  Solving for p, Initial residual = 0.000347842, Final residual = 9.86713e-07, No Iterations 8
time step continuity errors : sum local = 2.40094e-11, global = -1.04108e-11, cumulative = 7.1134e-12
BiCGStab:  Solving for Bx, Initial residual = 0.16577, Final residual = 8.55851e-08, No Iterations 1
BiCGStab:  Solving for By, Initial residual = 0.281106, Final residual = 3.52264e-07, No Iterations 1
CholeskyCG:  Solving for pB, Initial residual = 0.134645, Final residual = 8.88539e-06, No Iterations 21
magnetic flux divergence error = 7.56995e-14
BiCGStab:  Solving for Bx, Initial residual = 9.19643e-07, Final residual = 9.19643e-07, No Iterations 0
BiCGStab:  Solving for By, Initial residual = 7.21423e-05, Final residual = 8.30154e-11, No Iterations 1
CholeskyCG:  Solving for pB, Initial residual = 0.000131778, Final residual = 5.01629e-06, No Iterations 2
magnetic flux divergence error = 4.73727e-14
BiCGStab:  Solving for Bx, Initial residual = 9.19611e-07, Final residual = 9.19611e-07, No Iterations 0
BiCGStab:  Solving for By, Initial residual = 3.32178e-09, Final residual = 3.32178e-09, No Iterations 0
CholeskyCG:  Solving for pB, Initial residual = 5.01615e-06, Final residual = 5.01615e-06, No Iterations 0
magnetic flux divergence error = 4.73727e-14
Time = 0.00133333

Courant Number mean: 0.000340927 max: 0.0034258 velocity magnitude: 1.04285
BiCGStab:  Solving for Ux, Initial residual = 0.100344, Final residual = 1.05984e-07, No Iterations 1
BiCGStab:  Solving for Uy, Initial residual = 0.119351, Final residual = 1.51511e-07, No Iterations 1
CholeskyCG:  Solving for p, Initial residual = 0.0204321, Final residual = 7.5394e-07, No Iterations 93
time step continuity errors : sum local = 1.80591e-11, global = -1.47599e-13, cumulative = 6.9658e-12
CholeskyCG:  Solving for p, Initial residual = 0.00275328, Final residual = 8.56476e-07, No Iterations 89
time step continuity errors : sum local = 1.73561e-11, global = 1.01535e-13, cumulative = 7.06734e-12
CholeskyCG:  Solving for p, Initial residual = 0.000250047, Final residual = 9.63472e-07, No Iterations 7
time step continuity errors : sum local = 2.02422e-11, global = -7.89991e-12, cumulative = -8.32568e-13
BiCGStab:  Solving for Bx, Initial residual = 0.114028, Final residual = 5.79918e-08, No Iterations 1
BiCGStab:  Solving for By, Initial residual = 0.19805, Final residual = 2.52954e-07, No Iterations 1
CholeskyCG:  Solving for pB, Initial residual = 0.0887878, Final residual = 7.49532e-06, No Iterations 21
magnetic flux divergence error = 7.63314e-14
BiCGStab:  Solving for Bx, Initial residual = 6.54865e-07, Final residual = 6.54865e-07, No Iterations 0
BiCGStab:  Solving for By, Initial residual = 5.65679e-05, Final residual = 6.75059e-11, No Iterations 1
CholeskyCG:  Solving for pB, Initial residual = 0.000134477, Final residual = 5.16564e-06, No Iterations 2
magnetic flux divergence error = 5.64295e-14
BiCGStab:  Solving for Bx, Initial residual = 6.54832e-07, Final residual = 6.54832e-07, No Iterations 0
BiCGStab:  Solving for By, Initial residual = 3.40693e-09, Final residual = 3.40693e-09, No Iterations 0
CholeskyCG:  Solving for pB, Initial residual = 5.1655e-06, Final residual = 5.1655e-06, No Iterations 0
magnetic flux divergence error = 5.64295e-14
Time = 0.00166667

Courant Number mean: 0.000341754 max: 0.00344831 velocity magnitude: 1.05278
BiCGStab:  Solving for Ux, Initial residual = 0.0742068, Final residual = 6.66529e-08, No Iterations 1
BiCGStab:  Solving for Uy, Initial residual = 0.0860017, Final residual = 1.11453e-07, No Iterations 1
CholeskyCG:  Solving for p, Initial residual = 0.0157128, Final residual = 9.55857e-07, No Iterations 91
time step continuity errors : sum local = 1.98416e-11, global = 2.15544e-13, cumulative = -6.17024e-13
CholeskyCG:  Solving for p, Initial residual = 0.00201894, Final residual = 8.39374e-07, No Iterations 88
time step continuity errors : sum local = 1.50902e-11, global = 1.90906e-13, cumulative = -4.26118e-13
CholeskyCG:  Solving for p, Initial residual = 0.00018858, Final residual = 7.51473e-07, No Iterations 7
time step continuity errors : sum local = 1.39353e-11, global = -6.03813e-12, cumulative = -6.46425e-12
BiCGStab:  Solving for Bx, Initial residual = 0.0870947, Final residual = 5.66269e-08, No Iterations 1
BiCGStab:  Solving for By, Initial residual = 0.150071, Final residual = 1.95621e-07, No Iterations 1
CholeskyCG:  Solving for pB, Initial residual = 0.071713, Final residual = 9.63659e-06, No Iterations 23
magnetic flux divergence error = 1.10301e-13
BiCGStab:  Solving for Bx, Initial residual = 5.11404e-07, Final residual = 5.11404e-07, No Iterations 0
BiCGStab:  Solving for By, Initial residual = 4.64242e-05, Final residual = 5.6678e-11, No Iterations 1
CholeskyCG:  Solving for pB, Initial residual = 0.000148516, Final residual = 6.39242e-06, No Iterations 2
magnetic flux divergence error = 7.65055e-14
BiCGStab:  Solving for Bx, Initial residual = 5.11376e-07, Final residual = 5.11376e-07, No Iterations 0
BiCGStab:  Solving for By, Initial residual = 3.39256e-09, Final residual = 3.39256e-09, No Iterations 0
CholeskyCG:  Solving for pB, Initial residual = 6.39227e-06, Final residual = 6.39227e-06, No Iterations 0
magnetic flux divergence error = 7.65055e-14
Time = 0.002

Courant Number mean: 0.000342476 max: 0.00346827 velocity magnitude: 1.06093
BiCGStab:  Solving for Ux, Initial residual = 0.0578674, Final residual = 4.38447e-08, No Iterations 1
BiCGStab:  Solving for Uy, Initial residual = 0.0657884, Final residual = 8.67236e-08, No Iterations 1
CholeskyCG:  Solving for p, Initial residual = 0.0125817, Final residual = 6.8654e-07, No Iterations 91
time step continuity errors : sum local = 1.26069e-11, global = 1.35775e-13, cumulative = -6.32847e-12
CholeskyCG:  Solving for p, Initial residual = 0.0015271, Final residual = 6.40132e-07, No Iterations 88
time step continuity errors : sum local = 1.03842e-11, global = 1.35068e-13, cumulative = -6.1934e-12
CholeskyCG:  Solving for p, Initial residual = 0.000148283, Final residual = 7.80559e-07, No Iterations 6
time step continuity errors : sum local = 1.30034e-11, global = -4.66997e-12, cumulative = -1.08634e-11
BiCGStab:  Solving for Bx, Initial residual = 0.070947, Final residual = 5.15678e-08, No Iterations 1
BiCGStab:  Solving for By, Initial residual = 0.119213, Final residual = 1.58473e-07, No Iterations 1
CholeskyCG:  Solving for pB, Initial residual = 0.056154, Final residual = 9.93416e-06, No Iterations 25
magnetic flux divergence error = 1.23996e-13
BiCGStab:  Solving for Bx, Initial residual = 4.196e-07, Final residual = 4.196e-07, No Iterations 0
BiCGStab:  Solving for By, Initial residual = 3.938e-05, Final residual = 4.93439e-11, No Iterations 1
CholeskyCG:  Solving for pB, Initial residual = 0.00015574, Final residual = 6.47768e-06, No Iterations 2
magnetic flux divergence error = 8.41813e-14
BiCGStab:  Solving for Bx, Initial residual = 4.19575e-07, Final residual = 4.19575e-07, No Iterations 0
BiCGStab:  Solving for By, Initial residual = 3.30426e-09, Final residual = 3.30426e-09, No Iterations 0
CholeskyCG:  Solving for pB, Initial residual = 6.47743e-06, Final residual = 6.47743e-06, No Iterations 0
magnetic flux divergence error = 8.41813e-14
Time = 0.00233333

Courant Number mean: 0.000343116 max: 0.00348626 velocity magnitude: 1.06748
BiCGStab:  Solving for Ux, Initial residual = 0.0468167, Final residual = 2.99939e-08, No Iterations 1
BiCGStab:  Solving for Uy, Initial residual = 0.052513, Final residual = 7.01946e-08, No Iterations 1
CholeskyCG:  Solving for p, Initial residual = 0.0103609, Final residual = 8.83128e-07, No Iterations 90
time step continuity errors : sum local = 1.45901e-11, global = 2.0806e-14, cumulative = -1.08426e-11
CholeskyCG:  Solving for p, Initial residual = 0.00119828, Final residual = 8.07332e-07, No Iterations 87
time step continuity errors : sum local = 1.19806e-11, global = 3.36434e-14, cumulative = -1.08089e-11
CholeskyCG:  Solving for p, Initial residual = 0.000120369, Final residual = 8.87936e-07, No Iterations 5
time step continuity errors : sum local = 1.34815e-11, global = -3.65981e-12, cumulative = -1.44687e-11
BiCGStab:  Solving for Bx, Initial residual = 0.0603059, Final residual = 4.48339e-08, No Iterations 1
BiCGStab:  Solving for By, Initial residual = 0.0990762, Final residual = 1.32403e-07, No Iterations 1
CholeskyCG:  Solving for pB, Initial residual = 0.0544658, Final residual = 9.42275e-06, No Iterations 21
magnetic flux divergence error = 1.27377e-13
BiCGStab:  Solving for Bx, Initial residual = 3.52304e-07, Final residual = 3.52304e-07, No Iterations 0
BiCGStab:  Solving for By, Initial residual = 3.41875e-05, Final residual = 4.38063e-11, No Iterations 1
CholeskyCG:  Solving for pB, Initial residual = 0.000156768, Final residual = 7.09491e-06, No Iterations 2
magnetic flux divergence error = 9.96165e-14
BiCGStab:  Solving for Bx, Initial residual = 3.52287e-07, Final residual = 3.52287e-07, No Iterations 0
BiCGStab:  Solving for By, Initial residual = 3.21006e-09, Final residual = 3.21006e-09, No Iterations 0
CholeskyCG:  Solving for pB, Initial residual = 7.09465e-06, Final residual = 7.09465e-06, No Iterations 0
magnetic flux divergence error = 9.96165e-14
Time = 0.00266667

Courant Number mean: 0.000343692 max: 0.00350268 velocity magnitude: 1.07259
BiCGStab:  Solving for Ux, Initial residual = 0.0388599, Final residual = 2.24391e-08, No Iterations 1
BiCGStab:  Solving for Uy, Initial residual = 0.0433013, Final residual = 5.84998e-08, No Iterations 1
CholeskyCG:  Solving for p, Initial residual = 0.00869807, Final residual = 6.82514e-07, No Iterations 90
time step continuity errors : sum local = 1.02875e-11, global = 1.1452e-14, cumulative = -1.44573e-11
CholeskyCG:  Solving for p, Initial residual = 0.00098506, Final residual = 6.543e-07, No Iterations 87
time step continuity errors : sum local = 8.98262e-12, global = 3.05812e-14, cumulative = -1.44267e-11
CholeskyCG:  Solving for p, Initial residual = 9.94801e-05, Final residual = 6.11988e-07, No Iterations 5
time step continuity errors : sum local = 8.56946e-12, global = -2.92542e-12, cumulative = -1.73521e-11
BiCGStab:  Solving for Bx, Initial residual = 0.0527825, Final residual = 3.86011e-08, No Iterations 1
BiCGStab:  Solving for By, Initial residual = 0.0846526, Final residual = 1.13316e-07, No Iterations 1
CholeskyCG:  Solving for pB, Initial residual = 0.0567935, Final residual = 9.34068e-06, No Iterations 25
magnetic flux divergence error = 1.3516e-13
BiCGStab:  Solving for Bx, Initial residual = 3.02101e-07, Final residual = 3.02101e-07, No Iterations 0
BiCGStab:  Solving for By, Initial residual = 3.01618e-05, Final residual = 3.93329e-11, No Iterations 1
CholeskyCG:  Solving for pB, Initial residual = 0.000157713, Final residual = 6.92925e-06, No Iterations 2
magnetic flux divergence error = 1.03243e-13
BiCGStab:  Solving for Bx, Initial residual = 3.02082e-07, Final residual = 3.02082e-07, No Iterations 0
BiCGStab:  Solving for By, Initial residual = 3.08155e-09, Final residual = 3.08155e-09, No Iterations 0
CholeskyCG:  Solving for pB, Initial residual = 6.92903e-06, Final residual = 6.92903e-06, No Iterations 0
magnetic flux divergence error = 1.03243e-13
Time = 0.003

Courant Number mean: 0.000344217 max: 0.00351787 velocity magnitude: 1.07643
BiCGStab:  Solving for Ux, Initial residual = 0.0332579, Final residual = 1.82648e-08, No Iterations 1
BiCGStab:  Solving for Uy, Initial residual = 0.0366257, Final residual = 4.98556e-08, No Iterations 1
CholeskyCG:  Solving for p, Initial residual = 0.007553, Final residual = 9.56049e-07, No Iterations 89
time step continuity errors : sum local = 1.33008e-11, global = -1.55622e-13, cumulative = -1.75077e-11
CholeskyCG:  Solving for p, Initial residual = 0.000822334, Final residual = 9.37529e-07, No Iterations 86
time step continuity errors : sum local = 1.20181e-11, global = -1.28517e-13, cumulative = -1.76363e-11
CholeskyCG:  Solving for p, Initial residual = 8.39663e-05, Final residual = 8.34569e-07, No Iterations 4
time step continuity errors : sum local = 1.08839e-11, global = -2.35687e-12, cumulative = -1.99931e-11
BiCGStab:  Solving for Bx, Initial residual = 0.0471646, Final residual = 3.3037e-08, No Iterations 1
BiCGStab:  Solving for By, Initial residual = 0.0737457, Final residual = 9.89556e-08, No Iterations 1
CholeskyCG:  Solving for pB, Initial residual = 0.0495149, Final residual = 9.43198e-06, No Iterations 25
magnetic flux divergence error = 1.44674e-13
BiCGStab:  Solving for Bx, Initial residual = 2.63606e-07, Final residual = 2.63606e-07, No Iterations 0
BiCGStab:  Solving for By, Initial residual = 2.7025e-05, Final residual = 3.57118e-11, No Iterations 1
CholeskyCG:  Solving for pB, Initial residual = 0.000155699, Final residual = 7.04786e-06, No Iterations 2
magnetic flux divergence error = 1.112e-13
BiCGStab:  Solving for Bx, Initial residual = 2.63587e-07, Final residual = 2.63587e-07, No Iterations 0
BiCGStab:  Solving for By, Initial residual = 2.93935e-09, Final residual = 2.93935e-09, No Iterations 0
CholeskyCG:  Solving for pB, Initial residual = 7.04767e-06, Final residual = 7.04767e-06, No Iterations 0
magnetic flux divergence error = 1.112e-13
Time = 0.00333333

Courant Number mean: 0.0003447 max: 0.00353204 velocity magnitude: 1.08047
BiCGStab:  Solving for Ux, Initial residual = 0.0289755, Final residual = 1.5313e-08, No Iterations 1
BiCGStab:  Solving for Uy, Initial residual = 0.0316086, Final residual = 4.32451e-08, No Iterations 1
CholeskyCG:  Solving for p, Initial residual = 0.00688412, Final residual = 7.95722e-07, No Iterations 89
time step continuity errors : sum local = 1.03168e-11, global = -1.22013e-13, cumulative = -2.01151e-11
CholeskyCG:  Solving for p, Initial residual = 0.000693355, Final residual = 9.9738e-07, No Iterations 85
time step continuity errors : sum local = 1.20301e-11, global = -1.87333e-13, cumulative = -2.03025e-11
CholeskyCG:  Solving for p, Initial residual = 7.24219e-05, Final residual = 7.44892e-07, No Iterations 4
time step continuity errors : sum local = 9.12122e-12, global = -1.9477e-12, cumulative = -2.22502e-11
BiCGStab:  Solving for Bx, Initial residual = 0.0427863, Final residual = 2.81629e-08, No Iterations 1
BiCGStab:  Solving for By, Initial residual = 0.0651889, Final residual = 8.75667e-08, No Iterations 1
CholeskyCG:  Solving for pB, Initial residual = 0.0435866, Final residual = 9.51786e-06, No Iterations 25
magnetic flux divergence error = 1.54424e-13
BiCGStab:  Solving for Bx, Initial residual = 2.33501e-07, Final residual = 2.33501e-07, No Iterations 0
BiCGStab:  Solving for By, Initial residual = 2.44821e-05, Final residual = 3.27171e-11, No Iterations 1
CholeskyCG:  Solving for pB, Initial residual = 0.000151897, Final residual = 7.42733e-06, No Iterations 2
magnetic flux divergence error = 1.23824e-13
BiCGStab:  Solving for Bx, Initial residual = 2.33483e-07, Final residual = 2.33483e-07, No Iterations 0
BiCGStab:  Solving for By, Initial residual = 2.79686e-09, Final residual = 2.79686e-09, No Iterations 0
CholeskyCG:  Solving for pB, Initial residual = 7.42715e-06, Final residual = 7.42715e-06, No Iterations 0
magnetic flux divergence error = 1.23824e-13
Time = 0.00366667

Courant Number mean: 0.000345149 max: 0.00354537 velocity magnitude: 1.08515
BiCGStab:  Solving for Ux, Initial residual = 0.0256134, Final residual = 1.34796e-08, No Iterations 1
BiCGStab:  Solving for Uy, Initial residual = 0.0277279, Final residual = 3.80467e-08, No Iterations 1
CholeskyCG:  Solving for p, Initial residual = 0.00630805, Final residual = 6.66522e-07, No Iterations 89
time step continuity errors : sum local = 8.11819e-12, global = -9.41492e-14, cumulative = -2.23443e-11
CholeskyCG:  Solving for p, Initial residual = 0.000589023, Final residual = 8.74398e-07, No Iterations 85
time step continuity errors : sum local = 9.98738e-12, global = -1.51733e-13, cumulative = -2.24961e-11
CholeskyCG:  Solving for p, Initial residual = 6.29221e-05, Final residual = 6.10047e-07, No Iterations 4
time step continuity errors : sum local = 7.06149e-12, global = -1.62896e-12, cumulative = -2.4125e-11
BiCGStab:  Solving for Bx, Initial residual = 0.0392572, Final residual = 2.39836e-08, No Iterations 1
BiCGStab:  Solving for By, Initial residual = 0.0581418, Final residual = 7.81834e-08, No Iterations 1
CholeskyCG:  Solving for pB, Initial residual = 0.0385447, Final residual = 9.98883e-06, No Iterations 22
magnetic flux divergence error = 1.70754e-13
BiCGStab:  Solving for Bx, Initial residual = 2.08708e-07, Final residual = 2.08708e-07, No Iterations 0
BiCGStab:  Solving for By, Initial residual = 2.22692e-05, Final residual = 3.01235e-11, No Iterations 1
CholeskyCG:  Solving for pB, Initial residual = 0.000147738, Final residual = 8.05721e-06, No Iterations 2
magnetic flux divergence error = 1.41143e-13
BiCGStab:  Solving for Bx, Initial residual = 2.08687e-07, Final residual = 2.08687e-07, No Iterations 0
BiCGStab:  Solving for By, Initial residual = 2.6429e-09, Final residual = 2.6429e-09, No Iterations 0
CholeskyCG:  Solving for pB, Initial residual = 8.05706e-06, Final residual = 8.05706e-06, No Iterations 0
magnetic flux divergence error = 1.41143e-13
Time = 0.004

Courant Number mean: 0.000345569 max: 0.00355801 velocity magnitude: 1.08924
BiCGStab:  Solving for Ux, Initial residual = 0.0229161, Final residual = 1.22943e-08, No Iterations 1
BiCGStab:  Solving for Uy, Initial residual = 0.0246529, Final residual = 3.38645e-08, No Iterations 1
CholeskyCG:  Solving for p, Initial residual = 0.00579849, Final residual = 9.4414e-07, No Iterations 88
time step continuity errors : sum local = 1.08754e-11, global = -1.44462e-13, cumulative = -2.42695e-11
CholeskyCG:  Solving for p, Initial residual = 0.000503555, Final residual = 8.98441e-07, No Iterations 84
time step continuity errors : sum local = 9.76988e-12, global = -4.90804e-14, cumulative = -2.43186e-11
CholeskyCG:  Solving for p, Initial residual = 5.51697e-05, Final residual = 6.13203e-07, No Iterations 4
time step continuity errors : sum local = 6.74786e-12, global = -1.37684e-12, cumulative = -2.56954e-11
BiCGStab:  Solving for Bx, Initial residual = 0.0363374, Final residual = 2.0457e-08, No Iterations 1
BiCGStab:  Solving for By, Initial residual = 0.0522185, Final residual = 7.0201e-08, No Iterations 1
CholeskyCG:  Solving for pB, Initial residual = 0.0347825, Final residual = 8.92941e-06, No Iterations 26
magnetic flux divergence error = 1.60144e-13
BiCGStab:  Solving for Bx, Initial residual = 1.88004e-07, Final residual = 1.88004e-07, No Iterations 0
BiCGStab:  Solving for By, Initial residual = 2.03608e-05, Final residual = 2.78074e-11, No Iterations 1
CholeskyCG:  Solving for pB, Initial residual = 0.000142638, Final residual = 7.67725e-06, No Iterations 2
magnetic flux divergence error = 1.4089e-13
BiCGStab:  Solving for Bx, Initial residual = 1.87979e-07, Final residual = 1.87979e-07, No Iterations 0
BiCGStab:  Solving for By, Initial residual = 2.54787e-09, Final residual = 2.54787e-09, No Iterations 0
CholeskyCG:  Solving for pB, Initial residual = 7.67701e-06, Final residual = 7.67701e-06, No Iterations 0
magnetic flux divergence error = 1.4089e-13
Time = 0.00433333

Courant Number mean: 0.000345964 max: 0.00357005 velocity magnitude: 1.09276
BiCGStab:  Solving for Ux, Initial residual = 0.0206979, Final residual = 1.11976e-08, No Iterations 1
BiCGStab:  Solving for Uy, Initial residual = 0.0221761, Final residual = 3.04382e-08, No Iterations 1
CholeskyCG:  Solving for p, Initial residual = 0.00534097, Final residual = 8.17967e-07, No Iterations 88
time step continuity errors : sum local = 8.96055e-12, global = -1.08299e-13, cumulative = -2.58037e-11
CholeskyCG:  Solving for p, Initial residual = 0.000432059, Final residual = 8.08574e-07, No Iterations 84
time step continuity errors : sum local = 8.4088e-12, global = -4.74972e-14, cumulative = -2.58512e-11
CholeskyCG:  Solving for p, Initial residual = 4.84425e-05, Final residual = 8.64054e-07, No Iterations 3
time step continuity errors : sum local = 9.08227e-12, global = -1.1546e-12, cumulative = -2.70058e-11
BiCGStab:  Solving for Bx, Initial residual = 0.0340797, Final residual = 1.75172e-08, No Iterations 1
BiCGStab:  Solving for By, Initial residual = 0.0472729, Final residual = 6.34822e-08, No Iterations 1
CholeskyCG:  Solving for pB, Initial residual = 0.0356923, Final residual = 9.81511e-06, No Iterations 22
magnetic flux divergence error = 1.843e-13
BiCGStab:  Solving for Bx, Initial residual = 1.70339e-07, Final residual = 1.70339e-07, No Iterations 0
BiCGStab:  Solving for By, Initial residual = 1.87099e-05, Final residual = 2.57722e-11, No Iterations 1