/*--------------------------------*- C++ -*----------------------------------*\
| =========                 |                                                 |
| \\      /  F ield         | foam-extend: Open Source CFD                    |
|  \\    /   O peration     | Version:     5.0                                |
|   \\  /    A nd           | Web:         http://www.foam-extend.org         |
|    \\/     M anipulation  | For copyright notice see file Copyright         |
\*---------------------------------------------------------------------------*/
FoamFile
{
    version     2.0;
    format      ascii;
    class       dictionary;
    object      fvSchemes;
}
// * * * * * * * * * * * * * * * * * * * * * * * * * * * * * * * * * * * * * //

ddtSchemes
{
    default Euler;
}

gradSchemes
{
    default         Gauss linear;
    grad(p)         Gauss linear;
    grad((DBU*magSqr(B))) Gauss linear;
}

divSchemes
{
    default         none;
    div(phi,U)      Gauss linear;
    div(phiB,U)     Gauss linear;
    div(phi,B)      Gauss linear;
    div(phiB,((2*DBU)*B)) Gauss linear;
}

laplacianSchemes
{
    default         none;
    laplacian(nu,U) Gauss linear corrected;
    laplacian((1|A(U)),p) Gauss linear corrected;
    laplacian(DB,B) Gauss linear corrected;
    laplacian((1|A(B)),pB) Gauss linear corrected;
}

interpolationSchemes
{
    default         linear;
    interpolate(HbyA) linear;
    interpolate(B)  linear;
}

snGradSchemes
{
    default         corrected;
}

// ************************************************************************* //
/*--------------------------------*- C++ -*----------------------------------*\
| =========                 |                                                 |
| \\      /  F ield         | foam-extend: Open Source CFD                    |
|  \\    /   O peration     | Version:     5.0                                |
|   \\  /    A nd           | Web:         http://www.foam-extend.org         |
|    \\/     M anipulation  | For copyright notice see file Copyright         |
\*---------------------------------------------------------------------------*/
FoamFile
{
    version     2.0;
    format      ascii;
    class       dictionary;
    object      fvSolution;
}
// * * * * * * * * * * * * * * * * * * * * * * * * * * * * * * * * * * * * * //

solvers
{
    p
    {
        solver           CG;
        preconditioner   Cholesky;
        tolerance        1e-06;
        relTol           0;
    }
    U
    {
        solver           BiCGStab;
        preconditioner   DILU;
        tolerance        1e-05;
        relTol           0;
    }
    B
    {
        solver           BiCGStab;
        preconditioner   DILU;
        tolerance        1e-05;
        relTol           0;
    }
    pB
    {
        solver           CG;
        preconditioner   Cholesky;
        tolerance        1e-05;
        relTol           0;
    }
}

PISO
{
    nCorrectors     3;
    nNonOrthogonalCorrectors 0;
}

BPISO
{
    nCorrectors     3;
}

// ************************************************************************* //
/*---------------------------------------------------------------------------*\
| =========                 |                                                 |
| \\      /  F ield         | foam-extend: Open Source CFD                    |
|  \\    /   O peration     | Version:     5.0                                |
|   \\  /    A nd           | Web:         http://www.foam-extend.org         |
|    \\/     M anipulation  | For copyright notice see file Copyright         |
\*---------------------------------------------------------------------------*/
Build  : 5.0-73c2a3d539c2
Exec   : mhdFoam
Date   : Jul 10 2023
Time   : 12:57:59
Host   : "ojm40-OMEN"
PID    : 334581
CtrlDict : "/home/ojm40/foam/ojm40-5.0/work/liquidMetalBattery/run/hartmannMHD/system/controlDict"
Case   : /home/ojm40/foam/ojm40-5.0/work/liquidMetalBattery/run/hartmannMHD
nProcs : 1
sigFpe : Enabling floating point exception trapping (FOAM_SIGFPE).
allowSystemOperations : Disallowing user-supplied system call operations

// * * * * * * * * * * * * * * * * * * * * * * * * * * * * * * * * * * * * * //
Create time

Create mesh for time = 0


PISO: Operating solver in PISO mode

Reading transportProperties

Reading field p

Reading field U

Reading/calculating face flux field phi

Reading field pB

Reading field B

Calculating face flux


Starting time loop
Time = 0.000666667

Courant Number mean: 0 max: 0.00333333 velocity magnitude: 1
BiCGStab:  Solving for Ux, Initial residual = 1, Final residual = 1.06336e-07, No Iterations 1
BiCGStab:  Solving for Uy, Initial residual = 0, Final residual = 0, No Iterations 0
CholeskyCG:  Solving for p, Initial residual = 1, Final residual = 8.69506e-07, No Iterations 54
time step continuity errors : sum local = 2.89835e-11, global = 3.19231e-14, cumulative = 3.19231e-14
CholeskyCG:  Solving for p, Initial residual = 0.00118589, Final residual = 3.95712e-07, No Iterations 47
time step continuity errors : sum local = 1.34916e-09, global = 1.84131e-11, cumulative = 1.8445e-11
CholeskyCG:  Solving for p, Initial residual = 4.17292e-05, Final residual = 4.36647e-07, No Iterations 42
time step continuity errors : sum local = 1.31533e-09, global = 2.68616e-11, cumulative = 4.53067e-11
BiCGStab:  Solving for Bx, Initial residual = 1, Final residual = 9.09031e-08, No Iterations 1
BiCGStab:  Solving for By, Initial residual = 1, Final residual = 1.02762e-07, No Iterations 1
CholeskyCG:  Solving for pB, Initial residual = 1, Final residual = 9.17998e-06, No Iterations 37
magnetic flux divergence error = 1.92478e-12
BiCGStab:  Solving for Bx, Initial residual = 6.18238e-06, Final residual = 6.18238e-06, No Iterations 0
BiCGStab:  Solving for By, Initial residual = 0.00018889, Final residual = 1.81751e-11, No Iterations 1
CholeskyCG:  Solving for pB, Initial residual = 5.85055e-05, Final residual = 4.77301e-06, No Iterations 1
magnetic flux divergence error = 2.00157e-12
BiCGStab:  Solving for Bx, Initial residual = 6.18238e-06, Final residual = 6.18238e-06, No Iterations 0
BiCGStab:  Solving for By, Initial residual = 1.6308e-09, Final residual = 1.6308e-09, No Iterations 0
CholeskyCG:  Solving for pB, Initial residual = 4.77301e-06, Final residual = 4.77301e-06, No Iterations 0
magnetic flux divergence error = 2.00157e-12
Time = 0.00133333

Courant Number mean: 0.000343181 max: 0.00337313 velocity magnitude: 1.0134
BiCGStab:  Solving for Ux, Initial residual = 0.962583, Final residual = 1.40061e-08, No Iterations 1
BiCGStab:  Solving for Uy, Initial residual = 0.332787, Final residual = 3.54803e-08, No Iterations 1
CholeskyCG:  Solving for p, Initial residual = 0.0110602, Final residual = 3.70014e-07, No Iterations 50
time step continuity errors : sum local = 1.10353e-09, global = -1.14886e-11, cumulative = 3.3818e-11
CholeskyCG:  Solving for p, Initial residual = 0.0107944, Final residual = 8.93364e-07, No Iterations 49
time step continuity errors : sum local = 3.29385e-10, global = 5.17538e-12, cumulative = 3.89934e-11
CholeskyCG:  Solving for p, Initial residual = 0.00264832, Final residual = 9.35082e-07, No Iterations 46
time step continuity errors : sum local = 3.84148e-11, global = -3.25446e-13, cumulative = 3.8668e-11
BiCGStab:  Solving for Bx, Initial residual = 0.312076, Final residual = 2.70753e-08, No Iterations 1
BiCGStab:  Solving for By, Initial residual = 0.473886, Final residual = 4.92218e-08, No Iterations 1
CholeskyCG:  Solving for pB, Initial residual = 0.242284, Final residual = 9.04163e-06, No Iterations 35
magnetic flux divergence error = 4.58122e-12
BiCGStab:  Solving for Bx, Initial residual = 2.73687e-06, Final residual = 2.73687e-06, No Iterations 0
BiCGStab:  Solving for By, Initial residual = 0.000121728, Final residual = 1.186e-11, No Iterations 1
CholeskyCG:  Solving for pB, Initial residual = 7.83157e-05, Final residual = 6.97189e-06, No Iterations 1
magnetic flux divergence error = 4.14138e-12
BiCGStab:  Solving for Bx, Initial residual = 2.73687e-06, Final residual = 2.73687e-06, No Iterations 0
BiCGStab:  Solving for By, Initial residual = 1.82102e-09, Final residual = 1.82102e-09, No Iterations 0
CholeskyCG:  Solving for pB, Initial residual = 6.97189e-06, Final residual = 6.97189e-06, No Iterations 0
magnetic flux divergence error = 4.14138e-12
Time = 0.002

Courant Number mean: 0.000344496 max: 0.00340977 velocity magnitude: 1.0242
BiCGStab:  Solving for Ux, Initial residual = 0.142777, Final residual = 1.29358e-08, No Iterations 1
BiCGStab:  Solving for Uy, Initial residual = 0.194002, Final residual = 2.13931e-08, No Iterations 1
CholeskyCG:  Solving for p, Initial residual = 0.032356, Final residual = 5.76235e-07, No Iterations 49
time step continuity errors : sum local = 2.36292e-11, global = -1.42698e-13, cumulative = 3.85253e-11
CholeskyCG:  Solving for p, Initial residual = 0.00214796, Final residual = 7.84756e-07, No Iterations 46
time step continuity errors : sum local = 2.91886e-11, global = -2.36022e-13, cumulative = 3.82892e-11
CholeskyCG:  Solving for p, Initial residual = 0.000114253, Final residual = 7.45677e-07, No Iterations 6
time step continuity errors : sum local = 2.80031e-11, global = -7.86866e-12, cumulative = 3.04206e-11
BiCGStab:  Solving for Bx, Initial residual = 0.179414, Final residual = 1.42344e-08, No Iterations 1
BiCGStab:  Solving for By, Initial residual = 0.304179, Final residual = 3.19863e-08, No Iterations 1
CholeskyCG:  Solving for pB, Initial residual = 0.120156, Final residual = 8.93663e-06, No Iterations 20
magnetic flux divergence error = 5.82514e-12
BiCGStab:  Solving for Bx, Initial residual = 1.7089e-06, Final residual = 1.7089e-06, No Iterations 0
BiCGStab:  Solving for By, Initial residual = 8.83705e-05, Final residual = 8.73161e-12, No Iterations 1
CholeskyCG:  Solving for pB, Initial residual = 8.96084e-05, Final residual = 8.36433e-06, No Iterations 1
magnetic flux divergence error = 5.93571e-12
BiCGStab:  Solving for Bx, Initial residual = 1.70889e-06, Final residual = 1.70889e-06, No Iterations 0
BiCGStab:  Solving for By, Initial residual = 1.9895e-09, Final residual = 1.9895e-09, No Iterations 0
CholeskyCG:  Solving for pB, Initial residual = 8.36433e-06, Final residual = 8.36433e-06, No Iterations 0
magnetic flux divergence error = 5.93571e-12
Time = 0.00266667

Courant Number mean: 0.000345666 max: 0.00344353 velocity magnitude: 1.0345
BiCGStab:  Solving for Ux, Initial residual = 0.10332, Final residual = 7.56103e-09, No Iterations 1
BiCGStab:  Solving for Uy, Initial residual = 0.134865, Final residual = 1.52072e-08, No Iterations 1
CholeskyCG:  Solving for p, Initial residual = 0.0236016, Final residual = 4.12149e-07, No Iterations 49
time step continuity errors : sum local = 1.52146e-11, global = -9.31909e-14, cumulative = 3.03274e-11
CholeskyCG:  Solving for p, Initial residual = 0.00152152, Final residual = 5.54418e-07, No Iterations 46
time step continuity errors : sum local = 1.89506e-11, global = -1.57868e-13, cumulative = 3.01695e-11
CholeskyCG:  Solving for p, Initial residual = 7.93195e-05, Final residual = 9.48319e-07, No Iterations 5
time step continuity errors : sum local = 3.26758e-11, global = -6.09057e-12, cumulative = 2.40789e-11
BiCGStab:  Solving for Bx, Initial residual = 0.124049, Final residual = 8.53366e-09, No Iterations 1
BiCGStab:  Solving for By, Initial residual = 0.221179, Final residual = 2.35859e-08, No Iterations 1
CholeskyCG:  Solving for pB, Initial residual = 0.0802654, Final residual = 9.52609e-06, No Iterations 13
magnetic flux divergence error = 7.04468e-12
BiCGStab:  Solving for Bx, Initial residual = 1.21226e-06, Final residual = 1.21226e-06, No Iterations 0
BiCGStab:  Solving for By, Initial residual = 6.82899e-05, Final residual = 6.84352e-12, No Iterations 1
CholeskyCG:  Solving for pB, Initial residual = 9.88631e-05, Final residual = 9.70336e-06, No Iterations 1
magnetic flux divergence error = 7.46578e-12
BiCGStab:  Solving for Bx, Initial residual = 1.21225e-06, Final residual = 1.21225e-06, No Iterations 0
BiCGStab:  Solving for By, Initial residual = 2.05871e-09, Final residual = 2.05871e-09, No Iterations 0
CholeskyCG:  Solving for pB, Initial residual = 9.70314e-06, Final residual = 9.70314e-06, No Iterations 0
magnetic flux divergence error = 7.46578e-12
Time = 0.00333333

Courant Number mean: 0.000346721 max: 0.0034752 velocity magnitude: 1.04348
BiCGStab:  Solving for Ux, Initial residual = 0.0770762, Final residual = 4.272e-09, No Iterations 1
BiCGStab:  Solving for Uy, Initial residual = 0.102019, Final residual = 1.17186e-08, No Iterations 1
CholeskyCG:  Solving for p, Initial residual = 0.0183187, Final residual = 7.71658e-07, No Iterations 48
time step continuity errors : sum local = 2.62897e-11, global = 3.25873e-13, cumulative = 2.44048e-11
CholeskyCG:  Solving for p, Initial residual = 0.00112022, Final residual = 9.81497e-07, No Iterations 45
time step continuity errors : sum local = 3.14822e-11, global = 4.11165e-13, cumulative = 2.4816e-11
CholeskyCG:  Solving for p, Initial residual = 5.79751e-05, Final residual = 7.17478e-07, No Iterations 5
time step continuity errors : sum local = 2.31635e-11, global = -4.6837e-12, cumulative = 2.01323e-11
BiCGStab:  Solving for Bx, Initial residual = 0.0941574, Final residual = 5.28574e-09, No Iterations 1
BiCGStab:  Solving for By, Initial residual = 0.171938, Final residual = 1.86499e-08, No Iterations 1
CholeskyCG:  Solving for pB, Initial residual = 0.055558, Final residual = 9.14912e-06, No Iterations 13
magnetic flux divergence error = 7.30008e-12
BiCGStab:  Solving for Bx, Initial residual = 9.24987e-07, Final residual = 9.24987e-07, No Iterations 0
BiCGStab:  Solving for By, Initial residual = 5.53592e-05, Final residual = 5.61255e-12, No Iterations 1
CholeskyCG:  Solving for pB, Initial residual = 0.000101954, Final residual = 4.49859e-06, No Iterations 2
magnetic flux divergence error = 3.71763e-12
BiCGStab:  Solving for Bx, Initial residual = 9.24968e-07, Final residual = 9.24968e-07, No Iterations 0
BiCGStab:  Solving for By, Initial residual = 2.18528e-09, Final residual = 2.18528e-09, No Iterations 0
CholeskyCG:  Solving for pB, Initial residual = 4.49848e-06, Final residual = 4.49848e-06, No Iterations 0
magnetic flux divergence error = 3.71763e-12
Time = 0.004

Courant Number mean: 0.000347682 max: 0.00350526 velocity magnitude: 1.05158
BiCGStab:  Solving for Ux, Initial residual = 0.0626059, Final residual = 2.62052e-09, No Iterations 1
BiCGStab:  Solving for Uy, Initial residual = 0.0810447, Final residual = 9.45696e-09, No Iterations 1
CholeskyCG:  Solving for p, Initial residual = 0.0149471, Final residual = 5.70399e-07, No Iterations 48
time step continuity errors : sum local = 1.82779e-11, global = 2.30318e-13, cumulative = 2.03626e-11
CholeskyCG:  Solving for p, Initial residual = 0.000848599, Final residual = 7.16725e-07, No Iterations 45
time step continuity errors : sum local = 2.19199e-11, global = 2.91958e-13, cumulative = 2.06546e-11
CholeskyCG:  Solving for p, Initial residual = 4.37354e-05, Final residual = 9.23904e-07, No Iterations 4
time step continuity errors : sum local = 2.84023e-11, global = -3.55451e-12, cumulative = 1.71001e-11
BiCGStab:  Solving for Bx, Initial residual = 0.0757071, Final residual = 3.23505e-09, No Iterations 1
BiCGStab:  Solving for By, Initial residual = 0.13912, Final residual = 1.5311e-08, No Iterations 1
CholeskyCG:  Solving for pB, Initial residual = 0.0462215, Final residual = 8.7907e-06, No Iterations 12
magnetic flux divergence error = 7.46914e-12
BiCGStab:  Solving for Bx, Initial residual = 7.46567e-07, Final residual = 7.46567e-07, No Iterations 0
BiCGStab:  Solving for By, Initial residual = 4.63148e-05, Final residual = 4.75651e-12, No Iterations 1
CholeskyCG:  Solving for pB, Initial residual = 0.000102066, Final residual = 4.32251e-06, No Iterations 2
magnetic flux divergence error = 3.77325e-12
BiCGStab:  Solving for Bx, Initial residual = 7.46549e-07, Final residual = 7.46549e-07, No Iterations 0
BiCGStab:  Solving for By, Initial residual = 2.13577e-09, Final residual = 2.13577e-09, No Iterations 0
CholeskyCG:  Solving for pB, Initial residual = 4.32241e-06, Final residual = 4.32241e-06, No Iterations 0
magnetic flux divergence error = 3.77325e-12
Time = 0.00466667

Courant Number mean: 0.000348563 max: 0.0035341 velocity magnitude: 1.06023
BiCGStab:  Solving for Ux, Initial residual = 0.0524318, Final residual = 2.15496e-09, No Iterations 1
BiCGStab:  Solving for Uy, Initial residual = 0.0664625, Final residual = 7.85984e-09, No Iterations 1
CholeskyCG:  Solving for p, Initial residual = 0.0126385, Final residual = 9.98414e-07, No Iterations 47
time step continuity errors : sum local = 3.05434e-11, global = 5.00389e-13, cumulative = 1.76004e-11
CholeskyCG:  Solving for p, Initial residual = 0.000657426, Final residual = 5.25089e-07, No Iterations 45
time step continuity errors : sum local = 1.55041e-11, global = 2.14375e-13, cumulative = 1.78148e-11
CholeskyCG:  Solving for p, Initial residual = 3.39301e-05, Final residual = 6.65028e-07, No Iterations 4
time step continuity errors : sum local = 1.97151e-11, global = -2.66948e-12, cumulative = 1.51453e-11
BiCGStab:  Solving for Bx, Initial residual = 0.0633393, Final residual = 1.99059e-09, No Iterations 1
BiCGStab:  Solving for By, Initial residual = 0.11577, Final residual = 1.28976e-08, No Iterations 1
CholeskyCG:  Solving for pB, Initial residual = 0.0521975, Final residual = 7.22445e-06, No Iterations 9
magnetic flux divergence error = 6.40401e-12
BiCGStab:  Solving for Bx, Initial residual = 6.20396e-07, Final residual = 6.20396e-07, No Iterations 0
BiCGStab:  Solving for By, Initial residual = 3.95097e-05, Final residual = 4.11241e-12, No Iterations 1
CholeskyCG:  Solving for pB, Initial residual = 0.000103598, Final residual = 3.70248e-06, No Iterations 2
magnetic flux divergence error = 3.33201e-12
BiCGStab:  Solving for Bx, Initial residual = 6.20381e-07, Final residual = 6.20381e-07, No Iterations 0
BiCGStab:  Solving for By, Initial residual = 2.10163e-09, Final residual = 2.10163e-09, No Iterations 0
CholeskyCG:  Solving for pB, Initial residual = 3.7024e-06, Final residual = 3.7024e-06, No Iterations 0
magnetic flux divergence error = 3.33201e-12
Time = 0.00533333

Courant Number mean: 0.000349379 max: 0.00356202 velocity magnitude: 1.06861
BiCGStab:  Solving for Ux, Initial residual = 0.0448336, Final residual = 2.10476e-09, No Iterations 1
BiCGStab:  Solving for Uy, Initial residual = 0.0558004, Final residual = 6.6677e-09, No Iterations 1
CholeskyCG:  Solving for p, Initial residual = 0.0109428, Final residual = 7.23834e-07, No Iterations 47
time step continuity errors : sum local = 2.13926e-11, global = 3.38089e-13, cumulative = 1.54834e-11
CholeskyCG:  Solving for p, Initial residual = 0.00051873, Final residual = 8.11904e-07, No Iterations 44
time step continuity errors : sum local = 2.3372e-11, global = 4.72611e-13, cumulative = 1.5956e-11
CholeskyCG:  Solving for p, Initial residual = 2.70849e-05, Final residual = 4.94893e-07, No Iterations 4
time step continuity errors : sum local = 1.42896e-11, global = -1.98496e-12, cumulative = 1.39711e-11
BiCGStab:  Solving for Bx, Initial residual = 0.0545582, Final residual = 1.63833e-09, No Iterations 1
BiCGStab:  Solving for By, Initial residual = 0.0983409, Final residual = 1.11793e-08, No Iterations 1
CholeskyCG:  Solving for pB, Initial residual = 0.0360115, Final residual = 7.24413e-06, No Iterations 9
magnetic flux divergence error = 6.60494e-12
BiCGStab:  Solving for Bx, Initial residual = 5.32062e-07, Final residual = 5.32062e-07, No Iterations 0
BiCGStab:  Solving for By, Initial residual = 3.45817e-05, Final residual = 3.64074e-12, No Iterations 1
CholeskyCG:  Solving for pB, Initial residual = 0.000110145, Final residual = 3.85401e-06, No Iterations 2
magnetic flux divergence error = 3.55953e-12
BiCGStab:  Solving for Bx, Initial residual = 5.32052e-07, Final residual = 5.32052e-07, No Iterations 0
BiCGStab:  Solving for By, Initial residual = 2.04026e-09, Final residual = 2.04026e-09, No Iterations 0
CholeskyCG:  Solving for pB, Initial residual = 3.85394e-06, Final residual = 3.85394e-06, No Iterations 0
magnetic flux divergence error = 3.55953e-12
Time = 0.006

Courant Number mean: 0.000350138 max: 0.00358927 velocity magnitude: 1.07678
BiCGStab:  Solving for Ux, Initial residual = 0.0389509, Final residual = 1.99816e-09, No Iterations 1
BiCGStab:  Solving for Uy, Initial residual = 0.0477432, Final residual = 5.74665e-09, No Iterations 1
CholeskyCG:  Solving for p, Initial residual = 0.00963977, Final residual = 5.19647e-07, No Iterations 47
time step continuity errors : sum local = 1.49783e-11, global = 2.24492e-13, cumulative = 1.41956e-11
CholeskyCG:  Solving for p, Initial residual = 0.000416462, Final residual = 5.79886e-07, No Iterations 44
time step continuity errors : sum local = 1.64023e-11, global = 3.20159e-13, cumulative = 1.45157e-11
CholeskyCG:  Solving for p, Initial residual = 2.1811e-05, Final residual = 7.14169e-07, No Iterations 3
time step continuity errors : sum local = 2.02458e-11, global = -1.40268e-12, cumulative = 1.31131e-11
BiCGStab:  Solving for Bx, Initial residual = 0.0480446, Final residual = 1.4672e-09, No Iterations 1
BiCGStab:  Solving for By, Initial residual = 0.0863786, Final residual = 9.84629e-09, No Iterations 1
CholeskyCG:  Solving for pB, Initial residual = 0.0325208, Final residual = 5.45722e-06, No Iterations 9
magnetic flux divergence error = 5.11849e-12
BiCGStab:  Solving for Bx, Initial residual = 4.65031e-07, Final residual = 4.65031e-07, No Iterations 0
BiCGStab:  Solving for By, Initial residual = 3.08229e-05, Final residual = 3.28058e-12, No Iterations 1
CholeskyCG:  Solving for pB, Initial residual = 0.000113548, Final residual = 3.33938e-06, No Iterations 2
magnetic flux divergence error = 3.18003e-12
BiCGStab:  Solving for Bx, Initial residual = 4.65023e-07, Final residual = 4.65023e-07, No Iterations 0
BiCGStab:  Solving for By, Initial residual = 1.97584e-09, Final residual = 1.97584e-09, No Iterations 0
CholeskyCG:  Solving for pB, Initial residual = 3.33928e-06, Final residual = 3.33928e-06, No Iterations 0
magnetic flux divergence error = 3.18003e-12
Time = 0.00666667

Courant Number mean: 0.000350848 max: 0.00361603 velocity magnitude: 1.08481
BiCGStab:  Solving for Ux, Initial residual = 0.034622, Final residual = 1.8248e-09, No Iterations 1
BiCGStab:  Solving for Uy, Initial residual = 0.0413778, Final residual = 5.01459e-09, No Iterations 1
CholeskyCG:  Solving for p, Initial residual = 0.00866738, Final residual = 8.56523e-07, No Iterations 46
time step continuity errors : sum local = 2.42613e-11, global = -1.3715e-13, cumulative = 1.29759e-11
CholeskyCG:  Solving for p, Initial residual = 0.000347764, Final residual = 8.66286e-07, No Iterations 43
time step continuity errors : sum local = 2.42225e-11, global = -1.0279e-13, cumulative = 1.28731e-11
CholeskyCG:  Solving for p, Initial residual = 1.8094e-05, Final residual = 5.3874e-07, No Iterations 3
time step continuity errors : sum local = 1.50879e-11, global = -9.93995e-13, cumulative = 1.18791e-11
BiCGStab:  Solving for Bx, Initial residual = 0.0430429, Final residual = 1.40723e-09, No Iterations 1
BiCGStab:  Solving for By, Initial residual = 0.0771037, Final residual = 8.8266e-09, No Iterations 1
CholeskyCG:  Solving for pB, Initial residual = 0.0313339, Final residual = 6.00172e-06, No Iterations 9
magnetic flux divergence error = 5.81706e-12
BiCGStab:  Solving for Bx, Initial residual = 4.13068e-07, Final residual = 4.13068e-07, No Iterations 0
BiCGStab:  Solving for By, Initial residual = 2.78474e-05, Final residual = 3.00739e-12, No Iterations 1
CholeskyCG:  Solving for pB, Initial residual = 0.000115661, Final residual = 3.50128e-06, No Iterations 2
magnetic flux divergence error = 3.45291e-12
BiCGStab:  Solving for Bx, Initial residual = 4.1306e-07, Final residual = 4.1306e-07, No Iterations 0
BiCGStab:  Solving for By, Initial residual = 1.90411e-09, Final residual = 1.90411e-09, No Iterations 0
CholeskyCG:  Solving for pB, Initial residual = 3.50119e-06, Final residual = 3.50119e-06, No Iterations 0
magnetic flux divergence error = 3.45291e-12
Time = 0.00733333

Courant Number mean: 0.000351516 max: 0.00364244 velocity magnitude: 1.09273
BiCGStab:  Solving for Ux, Initial residual = 0.0312363, Final residual = 1.65878e-09, No Iterations 1
BiCGStab:  Solving for Uy, Initial residual = 0.0362959, Final residual = 4.42269e-09, No Iterations 1
CholeskyCG:  Solving for p, Initial residual = 0.00785367, Final residual = 6.50485e-07, No Iterations 46
time step continuity errors : sum local = 1.82138e-11, global = -1.33186e-13, cumulative = 1.17459e-11
CholeskyCG:  Solving for p, Initial residual = 0.000295237, Final residual = 6.54641e-07, No Iterations 43
time step continuity errors : sum local = 1.81797e-11, global = -1.23425e-13, cumulative = 1.16225e-11
CholeskyCG:  Solving for p, Initial residual = 1.50163e-05, Final residual = 8.70962e-07, No Iterations 2
time step continuity errors : sum local = 2.42129e-11, global = -6.52861e-13, cumulative = 1.09697e-11
BiCGStab:  Solving for Bx, Initial residual = 0.0390974, Final residual = 1.29256e-09, No Iterations 1
BiCGStab:  Solving for By, Initial residual = 0.069489, Final residual = 7.98036e-09, No Iterations 1
CholeskyCG:  Solving for pB, Initial residual = 0.0391483, Final residual = 8.69202e-06, No Iterations 10
magnetic flux divergence error = 8.64211e-12
BiCGStab:  Solving for Bx, Initial residual = 3.68355e-07, Final residual = 3.68355e-07, No Iterations 0
BiCGStab:  Solving for By, Initial residual = 2.52956e-05, Final residual = 2.7727e-12, No Iterations 1
CholeskyCG:  Solving for pB, Initial residual = 0.000120277, Final residual = 5.27155e-06, No Iterations 2
magnetic flux divergence error = 5.28382e-12
BiCGStab:  Solving for Bx, Initial residual = 3.6834e-07, Final residual = 3.6834e-07, No Iterations 0
BiCGStab:  Solving for By, Initial residual = 1.84663e-09, Final residual = 1.84663e-09, No Iterations 0
CholeskyCG:  Solving for pB, Initial residual = 5.2714e-06, Final residual = 5.2714e-06, No Iterations 0
magnetic flux divergence error = 5.28382e-12
Time = 0.008

Courant Number mean: 0.000352146 max: 0.00366863 velocity magnitude: 1.10059
BiCGStab:  Solving for Ux, Initial residual = 0.0282986, Final residual = 1.49885e-09, No Iterations 1
BiCGStab:  Solving for Uy, Initial residual = 0.0321929, Final residual = 3.93403e-09, No Iterations 1
CholeskyCG:  Solving for p, Initial residual = 0.00720655, Final residual = 5.02152e-07, No Iterations 46
time step continuity errors : sum local = 1.39632e-11, global = -1.2405e-13, cumulative = 1.08456e-11
CholeskyCG:  Solving for p, Initial residual = 0.000256128, Final residual = 5.01867e-07, No Iterations 43
time step continuity errors : sum local = 1.38919e-11, global = -1.31296e-13, cumulative = 1.07143e-11
CholeskyCG:  Solving for p, Initial residual = 1.26603e-05, Final residual = 6.55878e-07, No Iterations 2
time step continuity errors : sum local = 1.81668e-11, global = -4.00192e-13, cumulative = 1.03141e-11
BiCGStab:  Solving for Bx, Initial residual = 0.0359131, Final residual = 1.14888e-09, No Iterations 1
BiCGStab:  Solving for By, Initial residual = 0.0630936, Final residual = 7.26022e-09, No Iterations 1
CholeskyCG:  Solving for pB, Initial residual = 0.0322514, Final residual = 5.15483e-06, No Iterations 9
magnetic flux divergence error = 5.24494e-12
BiCGStab:  Solving for Bx, Initial residual = 3.34507e-07, Final residual = 3.34507e-07, No Iterations 0
BiCGStab:  Solving for By, Initial residual = 2.33397e-05, Final residual = 2.59201e-12, No Iterations 1
CholeskyCG:  Solving for pB, Initial residual = 0.000116437, Final residual = 4.1654e-06, No Iterations 2
magnetic flux divergence error = 4.30133e-12
BiCGStab:  Solving for Bx, Initial residual = 3.34498e-07, Final residual = 3.34498e-07, No Iterations 0
BiCGStab:  Solving for By, Initial residual = 1.79761e-09, Final residual = 1.79761e-09, No Iterations 0
CholeskyCG:  Solving for pB, Initial residual = 4.1653e-06, Final residual = 4.1653e-06, No Iterations 0
magnetic flux divergence error = 4.30133e-12
Time = 0.00866667

Courant Number mean: 0.000352742 max: 0.00369469 velocity magnitude: 1.10841
BiCGStab:  Solving for Ux, Initial residual = 0.0257516, Final residual = 1.35118e-09, No Iterations 1
BiCGStab:  Solving for Uy, Initial residual = 0.0287594, Final residual = 3.52313e-09, No Iterations 1
CholeskyCG:  Solving for p, Initial residual = 0.00666776, Final residual = 7.85246e-07, No Iterations 45
time step continuity errors : sum local = 2.17641e-11, global = -4.82781e-13, cumulative = 9.83133e-12
CholeskyCG:  Solving for p, Initial residual = 0.000225326, Final residual = 3.89123e-07, No Iterations 43
time step continuity errors : sum local = 1.07681e-11, global = -1.33811e-13, cumulative = 9.69752e-12
CholeskyCG:  Solving for p, Initial residual = 1.08771e-05, Final residual = 5.28493e-07, No Iterations 2
time step continuity errors : sum local = 1.46297e-11, global = -1.9702e-13, cumulative = 9.5005e-12
BiCGStab:  Solving for Bx, Initial residual = 0.0332885, Final residual = 1.00014e-09, No Iterations 1
BiCGStab:  Solving for By, Initial residual = 0.0575499, Final residual = 6.64294e-09, No Iterations 1
CholeskyCG:  Solving for pB, Initial residual = 0.029749, Final residual = 7.29261e-06, No Iterations 9
magnetic flux divergence error = 7.63155e-12
BiCGStab:  Solving for Bx, Initial residual = 3.05355e-07, Final residual = 3.05355e-07, No Iterations 0
BiCGStab:  Solving for By, Initial residual = 2.16032e-05, Final residual = 2.42584e-12, No Iterations 1
CholeskyCG:  Solving for pB, Initial residual = 0.000116139, Final residual = 4.56141e-06, No Iterations 2