/*--------------------------------*- C++ -*----------------------------------*\
| =========                 |                                                 |
| \\      /  F ield         | foam-extend: Open Source CFD                    |
|  \\    /   O peration     | Version:     5.0                                |
|   \\  /    A nd           | Web:         http://www.foam-extend.org         |
|    \\/     M anipulation  | For copyright notice see file Copyright         |
\*---------------------------------------------------------------------------*/
FoamFile
{
    version     2.0;
    format      ascii;
    class       dictionary;
    object      fvSchemes;
}
// * * * * * * * * * * * * * * * * * * * * * * * * * * * * * * * * * * * * * //

ddtSchemes
{
    default Euler;
}

gradSchemes
{
    default         Gauss linear;
    grad(p)         Gauss linear;
    grad((DBU*magSqr(B))) Gauss linear;
}

divSchemes
{
    default         none;
    div(phi,U)      Gauss linear;
    div(phiB,U)     Gauss linear;
    div(phi,B)      Gauss linear;
    div(phiB,((2*DBU)*B)) Gauss linear;
}

laplacianSchemes
{
    default         none;
    laplacian(nu,U) Gauss linear corrected;
    laplacian((1|A(U)),p) Gauss linear corrected;
    laplacian(DB,B) Gauss linear corrected;
    laplacian((1|A(B)),pB) Gauss linear corrected;
}

interpolationSchemes
{
    default         linear;
    interpolate(HbyA) linear;
    interpolate(B)  linear;
}

snGradSchemes
{
    default         corrected;
}

// ************************************************************************* //
/*--------------------------------*- C++ -*----------------------------------*\
| =========                 |                                                 |
| \\      /  F ield         | foam-extend: Open Source CFD                    |
|  \\    /   O peration     | Version:     5.0                                |
|   \\  /    A nd           | Web:         http://www.foam-extend.org         |
|    \\/     M anipulation  | For copyright notice see file Copyright         |
\*---------------------------------------------------------------------------*/
FoamFile
{
    version     2.0;
    format      ascii;
    class       dictionary;
    object      fvSolution;
}
// * * * * * * * * * * * * * * * * * * * * * * * * * * * * * * * * * * * * * //

solvers
{
    p
    {
        solver           CG;
        preconditioner   Cholesky;
        tolerance        1e-06;
        relTol           0;
    }
    U
    {
        solver           BiCGStab;
        preconditioner   DILU;
        tolerance        1e-05;
        relTol           0;
    }
    B
    {
        solver           BiCGStab;
        preconditioner   DILU;
        tolerance        1e-05;
        relTol           0;
    }
    pB
    {
        solver           CG;
        preconditioner   Cholesky;
        tolerance        1e-05;
        relTol           0;
    }
}

PISO
{
    nCorrectors     3;
    nNonOrthogonalCorrectors 0;
}

BPISO
{
    nCorrectors     3;
}

// ************************************************************************* //
/*---------------------------------------------------------------------------*\
| =========                 |                                                 |
| \\      /  F ield         | foam-extend: Open Source CFD                    |
|  \\    /   O peration     | Version:     5.0                                |
|   \\  /    A nd           | Web:         http://www.foam-extend.org         |
|    \\/     M anipulation  | For copyright notice see file Copyright         |
\*---------------------------------------------------------------------------*/
Build  : 5.0-73c2a3d539c2
Exec   : mhdFoam
Date   : Jul 10 2023
Time   : 11:42:01
Host   : "ojm40-OMEN"
PID    : 332943
CtrlDict : "/home/ojm40/foam/ojm40-5.0/work/liquidMetalBattery/run/hartmannMHD/system/controlDict"
Case   : /home/ojm40/foam/ojm40-5.0/work/liquidMetalBattery/run/hartmannMHD
nProcs : 1
sigFpe : Enabling floating point exception trapping (FOAM_SIGFPE).
allowSystemOperations : Disallowing user-supplied system call operations

// * * * * * * * * * * * * * * * * * * * * * * * * * * * * * * * * * * * * * //
Create time

Create mesh for time = 0


PISO: Operating solver in PISO mode

Reading transportProperties

Reading field p

Reading field U

Reading/calculating face flux field phi

Reading field pB

Reading field B

Calculating face flux


Starting time loop
Time = 0.000666667

Courant Number mean: 0 max: 0.00333333 velocity magnitude: 1
BiCGStab:  Solving for Ux, Initial residual = 1, Final residual = 1.06336e-07, No Iterations 1
BiCGStab:  Solving for Uy, Initial residual = 0, Final residual = 0, No Iterations 0
CholeskyCG:  Solving for p, Initial residual = 1, Final residual = 8.69506e-07, No Iterations 54
time step continuity errors : sum local = 2.89835e-11, global = 3.19231e-14, cumulative = 3.19231e-14
CholeskyCG:  Solving for p, Initial residual = 0.00118589, Final residual = 3.95712e-07, No Iterations 47
time step continuity errors : sum local = 1.34916e-09, global = 1.84131e-11, cumulative = 1.8445e-11
CholeskyCG:  Solving for p, Initial residual = 4.17292e-05, Final residual = 4.36647e-07, No Iterations 42
time step continuity errors : sum local = 1.31533e-09, global = 2.68616e-11, cumulative = 4.53067e-11
BiCGStab:  Solving for Bx, Initial residual = 1, Final residual = 9.09031e-08, No Iterations 1
BiCGStab:  Solving for By, Initial residual = 1, Final residual = 1.02762e-07, No Iterations 1
CholeskyCG:  Solving for pB, Initial residual = 1, Final residual = 9.17998e-06, No Iterations 37
magnetic flux divergence error = 9.6239e-14
BiCGStab:  Solving for Bx, Initial residual = 6.18238e-06, Final residual = 6.18238e-06, No Iterations 0
BiCGStab:  Solving for By, Initial residual = 0.00018889, Final residual = 1.81751e-11, No Iterations 1
CholeskyCG:  Solving for pB, Initial residual = 5.85055e-05, Final residual = 4.77301e-06, No Iterations 1
magnetic flux divergence error = 1.00078e-13
BiCGStab:  Solving for Bx, Initial residual = 6.18238e-06, Final residual = 6.18238e-06, No Iterations 0
BiCGStab:  Solving for By, Initial residual = 1.60918e-09, Final residual = 1.60918e-09, No Iterations 0
CholeskyCG:  Solving for pB, Initial residual = 4.77301e-06, Final residual = 4.77301e-06, No Iterations 0
magnetic flux divergence error = 1.00078e-13
Time = 0.00133333

Courant Number mean: 0.000343181 max: 0.00337313 velocity magnitude: 1.0134
BiCGStab:  Solving for Ux, Initial residual = 0.962567, Final residual = 1.37404e-08, No Iterations 1
BiCGStab:  Solving for Uy, Initial residual = 0.329983, Final residual = 3.50737e-08, No Iterations 1
CholeskyCG:  Solving for p, Initial residual = 0.0110579, Final residual = 3.70054e-07, No Iterations 50
time step continuity errors : sum local = 1.10366e-09, global = -1.14882e-11, cumulative = 3.38185e-11
CholeskyCG:  Solving for p, Initial residual = 0.0107864, Final residual = 8.92716e-07, No Iterations 49
time step continuity errors : sum local = 3.29411e-10, global = 5.17574e-12, cumulative = 3.89942e-11
CholeskyCG:  Solving for p, Initial residual = 0.00266568, Final residual = 9.41288e-07, No Iterations 46
time step continuity errors : sum local = 3.84171e-11, global = -3.25479e-13, cumulative = 3.86687e-11
BiCGStab:  Solving for Bx, Initial residual = 0.312064, Final residual = 2.69096e-08, No Iterations 1
BiCGStab:  Solving for By, Initial residual = 0.47253, Final residual = 4.89898e-08, No Iterations 1
CholeskyCG:  Solving for pB, Initial residual = 0.241172, Final residual = 9.05179e-06, No Iterations 35
magnetic flux divergence error = 2.29058e-13
BiCGStab:  Solving for Bx, Initial residual = 2.74378e-06, Final residual = 2.74378e-06, No Iterations 0
BiCGStab:  Solving for By, Initial residual = 0.000124444, Final residual = 1.20467e-11, No Iterations 1
CholeskyCG:  Solving for pB, Initial residual = 8.12296e-05, Final residual = 7.08221e-06, No Iterations 1
magnetic flux divergence error = 2.0994e-13
BiCGStab:  Solving for Bx, Initial residual = 2.74377e-06, Final residual = 2.74377e-06, No Iterations 0
BiCGStab:  Solving for By, Initial residual = 1.87492e-09, Final residual = 1.87492e-09, No Iterations 0
CholeskyCG:  Solving for pB, Initial residual = 7.08221e-06, Final residual = 7.08221e-06, No Iterations 0
magnetic flux divergence error = 2.0994e-13
Time = 0.002

Courant Number mean: 0.00034451 max: 0.00340949 velocity magnitude: 1.02472
BiCGStab:  Solving for Ux, Initial residual = 0.140342, Final residual = 1.5261e-08, No Iterations 1
BiCGStab:  Solving for Uy, Initial residual = 0.189141, Final residual = 2.05889e-08, No Iterations 1
CholeskyCG:  Solving for p, Initial residual = 0.0319594, Final residual = 5.87078e-07, No Iterations 49
time step continuity errors : sum local = 2.38976e-11, global = -1.48034e-13, cumulative = 3.85207e-11
CholeskyCG:  Solving for p, Initial residual = 0.00217736, Final residual = 8.09274e-07, No Iterations 46
time step continuity errors : sum local = 2.94455e-11, global = -2.41068e-13, cumulative = 3.82796e-11
CholeskyCG:  Solving for p, Initial residual = 0.000116629, Final residual = 8.14638e-07, No Iterations 6
time step continuity errors : sum local = 2.99793e-11, global = -9.26703e-12, cumulative = 2.90126e-11
BiCGStab:  Solving for Bx, Initial residual = 0.17938, Final residual = 1.39101e-08, No Iterations 1
BiCGStab:  Solving for By, Initial residual = 0.300769, Final residual = 3.14291e-08, No Iterations 1
CholeskyCG:  Solving for pB, Initial residual = 0.120378, Final residual = 9.07108e-06, No Iterations 20
magnetic flux divergence error = 2.94722e-13
BiCGStab:  Solving for Bx, Initial residual = 1.71999e-06, Final residual = 1.71999e-06, No Iterations 0
BiCGStab:  Solving for By, Initial residual = 9.22285e-05, Final residual = 9.01386e-12, No Iterations 1
CholeskyCG:  Solving for pB, Initial residual = 9.67457e-05, Final residual = 8.65728e-06, No Iterations 1
magnetic flux divergence error = 3.05931e-13
BiCGStab:  Solving for Bx, Initial residual = 1.71999e-06, Final residual = 1.71999e-06, No Iterations 0
BiCGStab:  Solving for By, Initial residual = 2.12283e-09, Final residual = 2.12283e-09, No Iterations 0
CholeskyCG:  Solving for pB, Initial residual = 8.65719e-06, Final residual = 8.65719e-06, No Iterations 0
magnetic flux divergence error = 3.05931e-13
Time = 0.00266667

Courant Number mean: 0.000345698 max: 0.00344248 velocity magnitude: 1.03474
BiCGStab:  Solving for Ux, Initial residual = 0.103019, Final residual = 1.04551e-08, No Iterations 1
BiCGStab:  Solving for Uy, Initial residual = 0.128702, Final residual = 1.42185e-08, No Iterations 1
CholeskyCG:  Solving for p, Initial residual = 0.0228602, Final residual = 4.30406e-07, No Iterations 49
time step continuity errors : sum local = 1.5542e-11, global = -9.95895e-14, cumulative = 2.8913e-11
CholeskyCG:  Solving for p, Initial residual = 0.00155597, Final residual = 5.90201e-07, No Iterations 46
time step continuity errors : sum local = 1.93065e-11, global = -1.64942e-13, cumulative = 2.87481e-11
CholeskyCG:  Solving for p, Initial residual = 8.25351e-05, Final residual = 7.01906e-07, No Iterations 6
time step continuity errors : sum local = 2.3204e-11, global = -7.89551e-12, cumulative = 2.08526e-11
BiCGStab:  Solving for Bx, Initial residual = 0.123976, Final residual = 8.04548e-09, No Iterations 1
BiCGStab:  Solving for By, Initial residual = 0.216396, Final residual = 2.27786e-08, No Iterations 1
CholeskyCG:  Solving for pB, Initial residual = 0.0765537, Final residual = 8.68179e-06, No Iterations 14
magnetic flux divergence error = 3.21737e-13
BiCGStab:  Solving for Bx, Initial residual = 1.22569e-06, Final residual = 1.22569e-06, No Iterations 0
BiCGStab:  Solving for By, Initial residual = 7.25974e-05, Final residual = 7.19868e-12, No Iterations 1
CholeskyCG:  Solving for pB, Initial residual = 0.000109219, Final residual = 9.918e-06, No Iterations 1
magnetic flux divergence error = 3.84625e-13
BiCGStab:  Solving for Bx, Initial residual = 1.22568e-06, Final residual = 1.22568e-06, No Iterations 0
BiCGStab:  Solving for By, Initial residual = 2.2577e-09, Final residual = 2.2577e-09, No Iterations 0
CholeskyCG:  Solving for pB, Initial residual = 9.91773e-06, Final residual = 9.91773e-06, No Iterations 0
magnetic flux divergence error = 3.84625e-13
Time = 0.00333333

Courant Number mean: 0.00034677 max: 0.00347275 velocity magnitude: 1.0443
BiCGStab:  Solving for Ux, Initial residual = 0.0802212, Final residual = 7.62705e-09, No Iterations 1
BiCGStab:  Solving for Uy, Initial residual = 0.0953156, Final residual = 1.06763e-08, No Iterations 1
CholeskyCG:  Solving for p, Initial residual = 0.0172323, Final residual = 8.24947e-07, No Iterations 48
time step continuity errors : sum local = 2.68936e-11, global = 3.25673e-13, cumulative = 2.11782e-11
CholeskyCG:  Solving for p, Initial residual = 0.00116619, Final residual = 4.43187e-07, No Iterations 46
time step continuity errors : sum local = 1.32237e-11, global = -1.13214e-13, cumulative = 2.1065e-11
CholeskyCG:  Solving for p, Initial residual = 6.15235e-05, Final residual = 8.75959e-07, No Iterations 5
time step continuity errors : sum local = 2.63915e-11, global = -6.72551e-12, cumulative = 1.43395e-11
BiCGStab:  Solving for Bx, Initial residual = 0.0940529, Final residual = 4.65277e-09, No Iterations 1
BiCGStab:  Solving for By, Initial residual = 0.166541, Final residual = 1.76509e-08, No Iterations 1
CholeskyCG:  Solving for pB, Initial residual = 0.0541214, Final residual = 8.21117e-06, No Iterations 13
magnetic flux divergence error = 3.30285e-13
BiCGStab:  Solving for Bx, Initial residual = 9.40174e-07, Final residual = 9.40174e-07, No Iterations 0
BiCGStab:  Solving for By, Initial residual = 5.97568e-05, Final residual = 6.0071e-12, No Iterations 1
CholeskyCG:  Solving for pB, Initial residual = 0.000117082, Final residual = 4.23261e-06, No Iterations 2
magnetic flux divergence error = 1.76362e-13
BiCGStab:  Solving for Bx, Initial residual = 9.40151e-07, Final residual = 9.40151e-07, No Iterations 0
BiCGStab:  Solving for By, Initial residual = 2.46408e-09, Final residual = 2.46408e-09, No Iterations 0
CholeskyCG:  Solving for pB, Initial residual = 4.23248e-06, Final residual = 4.23248e-06, No Iterations 0
magnetic flux divergence error = 1.76362e-13
Time = 0.004

Courant Number mean: 0.000347745 max: 0.00350072 velocity magnitude: 1.05298
BiCGStab:  Solving for Ux, Initial residual = 0.0645154, Final residual = 5.70098e-09, No Iterations 1
BiCGStab:  Solving for Uy, Initial residual = 0.0743582, Final residual = 8.43833e-09, No Iterations 1
CholeskyCG:  Solving for p, Initial residual = 0.0135277, Final residual = 6.36172e-07, No Iterations 48
time step continuity errors : sum local = 1.89602e-11, global = 2.3093e-13, cumulative = 1.45705e-11
CholeskyCG:  Solving for p, Initial residual = 0.000903103, Final residual = 8.41967e-07, No Iterations 45
time step continuity errors : sum local = 2.31613e-11, global = 2.97272e-13, cumulative = 1.48677e-11
CholeskyCG:  Solving for p, Initial residual = 4.83695e-05, Final residual = 7.26329e-07, No Iterations 5
time step continuity errors : sum local = 2.01589e-11, global = -5.76509e-12, cumulative = 9.10263e-12
BiCGStab:  Solving for Bx, Initial residual = 0.0755718, Final residual = 2.96615e-09, No Iterations 1
BiCGStab:  Solving for By, Initial residual = 0.133779, Final residual = 1.4296e-08, No Iterations 1
CholeskyCG:  Solving for pB, Initial residual = 0.0468352, Final residual = 8.40952e-06, No Iterations 11
magnetic flux divergence error = 3.60404e-13
BiCGStab:  Solving for Bx, Initial residual = 7.59803e-07, Final residual = 7.59803e-07, No Iterations 0
BiCGStab:  Solving for By, Initial residual = 5.07271e-05, Final residual = 5.16104e-12, No Iterations 1
CholeskyCG:  Solving for pB, Initial residual = 0.000123819, Final residual = 4.18857e-06, No Iterations 2
magnetic flux divergence error = 1.8449e-13
BiCGStab:  Solving for Bx, Initial residual = 7.5978e-07, Final residual = 7.5978e-07, No Iterations 0
BiCGStab:  Solving for By, Initial residual = 2.51466e-09, Final residual = 2.51466e-09, No Iterations 0
CholeskyCG:  Solving for pB, Initial residual = 4.18844e-06, Final residual = 4.18844e-06, No Iterations 0
magnetic flux divergence error = 1.8449e-13
Time = 0.00466667

Courant Number mean: 0.000348635 max: 0.0035267 velocity magnitude: 1.06084
BiCGStab:  Solving for Ux, Initial residual = 0.0527287, Final residual = 4.2924e-09, No Iterations 1
BiCGStab:  Solving for Uy, Initial residual = 0.0601145, Final residual = 6.90771e-09, No Iterations 1
CholeskyCG:  Solving for p, Initial residual = 0.0109691, Final residual = 4.99826e-07, No Iterations 48
time step continuity errors : sum local = 1.37506e-11, global = 1.6964e-13, cumulative = 9.27227e-12
CholeskyCG:  Solving for p, Initial residual = 0.000716715, Final residual = 6.63939e-07, No Iterations 45
time step continuity errors : sum local = 1.69805e-11, global = 2.21355e-13, cumulative = 9.49363e-12
CholeskyCG:  Solving for p, Initial residual = 3.89373e-05, Final residual = 9.332e-07, No Iterations 4
time step continuity errors : sum local = 2.40626e-11, global = -4.94625e-12, cumulative = 4.54737e-12
BiCGStab:  Solving for Bx, Initial residual = 0.0631636, Final residual = 2.7471e-09, No Iterations 1
BiCGStab:  Solving for By, Initial residual = 0.110707, Final residual = 1.19395e-08, No Iterations 1
CholeskyCG:  Solving for pB, Initial residual = 0.0424141, Final residual = 8.8961e-06, No Iterations 11
magnetic flux divergence error = 4.01027e-13
BiCGStab:  Solving for Bx, Initial residual = 6.32062e-07, Final residual = 6.32062e-07, No Iterations 0
BiCGStab:  Solving for By, Initial residual = 4.39631e-05, Final residual = 4.52506e-12, No Iterations 1
CholeskyCG:  Solving for pB, Initial residual = 0.000127657, Final residual = 4.5872e-06, No Iterations 2
magnetic flux divergence error = 2.11525e-13
BiCGStab:  Solving for Bx, Initial residual = 6.32042e-07, Final residual = 6.32042e-07, No Iterations 0
BiCGStab:  Solving for By, Initial residual = 2.53783e-09, Final residual = 2.53783e-09, No Iterations 0
CholeskyCG:  Solving for pB, Initial residual = 4.58705e-06, Final residual = 4.58705e-06, No Iterations 0
magnetic flux divergence error = 2.11525e-13
Time = 0.00533333

Courant Number mean: 0.000349452 max: 0.00355098 velocity magnitude: 1.06794
BiCGStab:  Solving for Ux, Initial residual = 0.0438993, Final residual = 3.27224e-09, No Iterations 1
BiCGStab:  Solving for Uy, Initial residual = 0.0498904, Final residual = 5.80173e-09, No Iterations 1
CholeskyCG:  Solving for p, Initial residual = 0.00912967, Final residual = 9.39366e-07, No Iterations 47
time step continuity errors : sum local = 2.40423e-11, global = 3.91363e-13, cumulative = 4.93874e-12
CholeskyCG:  Solving for p, Initial residual = 0.000580558, Final residual = 5.30812e-07, No Iterations 45
time step continuity errors : sum local = 1.27099e-11, global = 1.69885e-13, cumulative = 5.10862e-12
CholeskyCG:  Solving for p, Initial residual = 3.21767e-05, Final residual = 7.5556e-07, No Iterations 4
time step continuity errors : sum local = 1.82272e-11, global = -4.27171e-12, cumulative = 8.36909e-13
BiCGStab:  Solving for Bx, Initial residual = 0.0543346, Final residual = 2.6853e-09, No Iterations 1
BiCGStab:  Solving for By, Initial residual = 0.0936809, Final residual = 1.01872e-08, No Iterations 1
CholeskyCG:  Solving for pB, Initial residual = 0.0360382, Final residual = 7.18949e-06, No Iterations 9
magnetic flux divergence error = 3.36338e-13
BiCGStab:  Solving for Bx, Initial residual = 5.41024e-07, Final residual = 5.41024e-07, No Iterations 0
BiCGStab:  Solving for By, Initial residual = 3.86506e-05, Final residual = 4.02912e-12, No Iterations 1
CholeskyCG:  Solving for pB, Initial residual = 0.00013084, Final residual = 4.15423e-06, No Iterations 2
magnetic flux divergence error = 1.97127e-13
BiCGStab:  Solving for Bx, Initial residual = 5.41011e-07, Final residual = 5.41011e-07, No Iterations 0
BiCGStab:  Solving for By, Initial residual = 2.5379e-09, Final residual = 2.5379e-09, No Iterations 0
CholeskyCG:  Solving for pB, Initial residual = 4.1541e-06, Final residual = 4.1541e-06, No Iterations 0
magnetic flux divergence error = 1.97127e-13
Time = 0.006

Courant Number mean: 0.000350207 max: 0.00357379 velocity magnitude: 1.07434
BiCGStab:  Solving for Ux, Initial residual = 0.0371816, Final residual = 2.53111e-09, No Iterations 1
BiCGStab:  Solving for Uy, Initial residual = 0.0422803, Final residual = 4.96925e-09, No Iterations 1
CholeskyCG:  Solving for p, Initial residual = 0.00775732, Final residual = 7.40132e-07, No Iterations 47
time step continuity errors : sum local = 1.77409e-11, global = 2.81513e-13, cumulative = 1.11842e-12
CholeskyCG:  Solving for p, Initial residual = 0.000477937, Final residual = 9.0917e-07, No Iterations 44
time step continuity errors : sum local = 2.05027e-11, global = 4.24453e-13, cumulative = 1.54287e-12
CholeskyCG:  Solving for p, Initial residual = 2.75931e-05, Final residual = 6.43054e-07, No Iterations 4
time step continuity errors : sum local = 1.46014e-11, global = -3.72028e-12, cumulative = -2.17741e-12
BiCGStab:  Solving for Bx, Initial residual = 0.0477736, Final residual = 2.59991e-09, No Iterations 1
BiCGStab:  Solving for By, Initial residual = 0.0806579, Final residual = 8.83562e-09, No Iterations 1
CholeskyCG:  Solving for pB, Initial residual = 0.0308864, Final residual = 6.25081e-06, No Iterations 9
magnetic flux divergence error = 3.01066e-13
BiCGStab:  Solving for Bx, Initial residual = 4.76119e-07, Final residual = 4.76119e-07, No Iterations 0
BiCGStab:  Solving for By, Initial residual = 3.44892e-05, Final residual = 3.63498e-12, No Iterations 1
CholeskyCG:  Solving for pB, Initial residual = 0.00013739, Final residual = 4.03158e-06, No Iterations 2
magnetic flux divergence error = 1.9705e-13
BiCGStab:  Solving for Bx, Initial residual = 4.76105e-07, Final residual = 4.76105e-07, No Iterations 0
BiCGStab:  Solving for By, Initial residual = 2.50512e-09, Final residual = 2.50512e-09, No Iterations 0
CholeskyCG:  Solving for pB, Initial residual = 4.03146e-06, Final residual = 4.03146e-06, No Iterations 0
magnetic flux divergence error = 1.9705e-13
Time = 0.00666667

Courant Number mean: 0.000350907 max: 0.00359532 velocity magnitude: 1.08008
BiCGStab:  Solving for Ux, Initial residual = 0.0319566, Final residual = 1.97561e-09, No Iterations 1
BiCGStab:  Solving for Uy, Initial residual = 0.0364417, Final residual = 4.323e-09, No Iterations 1
CholeskyCG:  Solving for p, Initial residual = 0.00670137, Final residual = 5.87304e-07, No Iterations 47
time step continuity errors : sum local = 1.32603e-11, global = 2.03817e-13, cumulative = -1.97359e-12
CholeskyCG:  Solving for p, Initial residual = 0.000407913, Final residual = 7.32934e-07, No Iterations 44
time step continuity errors : sum local = 1.56473e-11, global = 3.20344e-13, cumulative = -1.65325e-12
CholeskyCG:  Solving for p, Initial residual = 2.365e-05, Final residual = 9.07832e-07, No Iterations 3
time step continuity errors : sum local = 1.95037e-11, global = -3.20171e-12, cumulative = -4.85496e-12
BiCGStab:  Solving for Bx, Initial residual = 0.0427318, Final residual = 2.43576e-09, No Iterations 1
BiCGStab:  Solving for By, Initial residual = 0.0704212, Final residual = 7.76465e-09, No Iterations 1
CholeskyCG:  Solving for pB, Initial residual = 0.0273423, Final residual = 4.99175e-06, No Iterations 9
magnetic flux divergence error = 2.47814e-13
BiCGStab:  Solving for Bx, Initial residual = 4.25563e-07, Final residual = 4.25563e-07, No Iterations 0
BiCGStab:  Solving for By, Initial residual = 3.11341e-05, Final residual = 3.31097e-12, No Iterations 1
CholeskyCG:  Solving for pB, Initial residual = 0.000143255, Final residual = 3.7693e-06, No Iterations 2
magnetic flux divergence error = 1.90022e-13
BiCGStab:  Solving for Bx, Initial residual = 4.25552e-07, Final residual = 4.25552e-07, No Iterations 0
BiCGStab:  Solving for By, Initial residual = 2.46263e-09, Final residual = 2.46263e-09, No Iterations 0
CholeskyCG:  Solving for pB, Initial residual = 3.76919e-06, Final residual = 3.76919e-06, No Iterations 0
magnetic flux divergence error = 1.90022e-13
Time = 0.00733333

Courant Number mean: 0.000351559 max: 0.00361574 velocity magnitude: 1.0852
BiCGStab:  Solving for Ux, Initial residual = 0.0283308, Final residual = 1.57546e-09, No Iterations 1
BiCGStab:  Solving for Uy, Initial residual = 0.0318372, Final residual = 3.80982e-09, No Iterations 1
CholeskyCG:  Solving for p, Initial residual = 0.00586607, Final residual = 4.70054e-07, No Iterations 47
time step continuity errors : sum local = 1.00475e-11, global = 1.48489e-13, cumulative = -4.70647e-12
CholeskyCG:  Solving for p, Initial residual = 0.000354664, Final residual = 5.97403e-07, No Iterations 44
time step continuity errors : sum local = 1.2129e-11, global = 2.45198e-13, cumulative = -4.46127e-12
CholeskyCG:  Solving for p, Initial residual = 2.05413e-05, Final residual = 7.26387e-07, No Iterations 3
time step continuity errors : sum local = 1.48333e-11, global = -2.8001e-12, cumulative = -7.26137e-12
BiCGStab:  Solving for Bx, Initial residual = 0.038747, Final residual = 2.26137e-09, No Iterations 1
BiCGStab:  Solving for By, Initial residual = 0.0621958, Final residual = 6.90012e-09, No Iterations 1
CholeskyCG:  Solving for pB, Initial residual = 0.0247593, Final residual = 7.37363e-06, No Iterations 9
magnetic flux divergence error = 3.76263e-13
BiCGStab:  Solving for Bx, Initial residual = 3.8384e-07, Final residual = 3.8384e-07, No Iterations 0
BiCGStab:  Solving for By, Initial residual = 2.83681e-05, Final residual = 3.0521e-12, No Iterations 1
CholeskyCG:  Solving for pB, Initial residual = 0.000150821, Final residual = 4.37512e-06, No Iterations 2
magnetic flux divergence error = 2.25946e-13
BiCGStab:  Solving for Bx, Initial residual = 3.83825e-07, Final residual = 3.83825e-07, No Iterations 0
BiCGStab:  Solving for By, Initial residual = 2.426e-09, Final residual = 2.426e-09, No Iterations 0
CholeskyCG:  Solving for pB, Initial residual = 4.375e-06, Final residual = 4.375e-06, No Iterations 0
magnetic flux divergence error = 2.25946e-13
Time = 0.008

Courant Number mean: 0.000352169 max: 0.00363519 velocity magnitude: 1.09083
BiCGStab:  Solving for Ux, Initial residual = 0.0253725, Final residual = 1.28171e-09, No Iterations 1
BiCGStab:  Solving for Uy, Initial residual = 0.0281327, Final residual = 3.39338e-09, No Iterations 1
CholeskyCG:  Solving for p, Initial residual = 0.00523232, Final residual = 8.82085e-07, No Iterations 46
time step continuity errors : sum local = 1.793e-11, global = -8.20473e-14, cumulative = -7.34342e-12
CholeskyCG:  Solving for p, Initial residual = 0.000311887, Final residual = 9.64285e-07, No Iterations 43
time step continuity errors : sum local = 1.86936e-11, global = -2.1382e-14, cumulative = -7.3648e-12
CholeskyCG:  Solving for p, Initial residual = 1.8427e-05, Final residual = 6.48553e-07, No Iterations 3
time step continuity errors : sum local = 1.26399e-11, global = -2.47077e-12, cumulative = -9.83557e-12
BiCGStab:  Solving for Bx, Initial residual = 0.0355247, Final residual = 2.09189e-09, No Iterations 1
BiCGStab:  Solving for By, Initial residual = 0.0554669, Final residual = 6.19253e-09, No Iterations 1
CholeskyCG:  Solving for pB, Initial residual = 0.0248779, Final residual = 7.32687e-06, No Iterations 9
magnetic flux divergence error = 3.83982e-13
BiCGStab:  Solving for Bx, Initial residual = 3.49687e-07, Final residual = 3.49687e-07, No Iterations 0
BiCGStab:  Solving for By, Initial residual = 2.60628e-05, Final residual = 2.84166e-12, No Iterations 1
CholeskyCG:  Solving for pB, Initial residual = 0.000154242, Final residual = 4.54022e-06, No Iterations 2
magnetic flux divergence error = 2.41414e-13
BiCGStab:  Solving for Bx, Initial residual = 3.49671e-07, Final residual = 3.49671e-07, No Iterations 0
BiCGStab:  Solving for By, Initial residual = 2.38207e-09, Final residual = 2.38207e-09, No Iterations 0
CholeskyCG:  Solving for pB, Initial residual = 4.54002e-06, Final residual = 4.54002e-06, No Iterations 0
magnetic flux divergence error = 2.41414e-13
Time = 0.00866667

Courant Number mean: 0.000352743 max: 0.00365378 velocity magnitude: 1.09618
BiCGStab:  Solving for Ux, Initial residual = 0.0229207, Final residual = 1.05399e-09, No Iterations 1
BiCGStab:  Solving for Uy, Initial residual = 0.0251056, Final residual = 3.05045e-09, No Iterations 1
CholeskyCG:  Solving for p, Initial residual = 0.00483937, Final residual = 7.45636e-07, No Iterations 46
time step continuity errors : sum local = 1.44708e-11, global = -7.88004e-14, cumulative = -9.91437e-12
CholeskyCG:  Solving for p, Initial residual = 0.00027607, Final residual = 8.18432e-07, No Iterations 43
time step continuity errors : sum local = 1.52041e-11, global = -2.9766e-14, cumulative = -9.94414e-12
CholeskyCG:  Solving for p, Initial residual = 1.63637e-05, Final residual = 5.26862e-07, No Iterations 3
time step continuity errors : sum local = 9.83562e-12, global = -2.18177e-12, cumulative = -1.21259e-11
BiCGStab:  Solving for Bx, Initial residual = 0.0328643, Final residual = 1.93454e-09, No Iterations 1
BiCGStab:  Solving for By, Initial residual = 0.0498794, Final residual = 5.60284e-09, No Iterations 1
CholeskyCG:  Solving for pB, Initial residual = 0.0228848, Final residual = 5.95709e-06, No Iterations 9
magnetic flux divergence error = 3.22014e-13
BiCGStab:  Solving for Bx, Initial residual = 3.2098e-07, Final residual = 3.2098e-07, No Iterations 0
BiCGStab:  Solving for By, Initial residual = 2.41004e-05, Final residual = 2.66053e-12, No Iterations 1
CholeskyCG:  Solving for pB, Initial residual = 0.000154869, Final residual = 4.34222e-06, No Iterations 2