/*--------------------------------*- C++ -*----------------------------------*\
| =========                 |                                                 |
| \\      /  F ield         | foam-extend: Open Source CFD                    |
|  \\    /   O peration     | Version:     5.0                                |
|   \\  /    A nd           | Web:         http://www.foam-extend.org         |
|    \\/     M anipulation  | For copyright notice see file Copyright         |
\*---------------------------------------------------------------------------*/
FoamFile
{
    version     2.0;
    format      ascii;
    class       dictionary;
    object      fvSchemes;
}
// * * * * * * * * * * * * * * * * * * * * * * * * * * * * * * * * * * * * * //

ddtSchemes
{
    default Euler;
}

gradSchemes
{
    default         Gauss linear;
    grad(p)         Gauss linear;
    grad((DBU*magSqr(B))) Gauss linear;
}

divSchemes
{
    default         none;
    div(phi,U)      Gauss linear;
    div(phiB,U)     Gauss linear;
    div(phi,B)      Gauss linear;
    div(phiB,((2*DBU)*B)) Gauss linear;
}

laplacianSchemes
{
    default         none;
    laplacian(nu,U) Gauss linear corrected;
    laplacian((1|A(U)),p) Gauss linear corrected;
    laplacian(DB,B) Gauss linear corrected;
    laplacian((1|A(B)),pB) Gauss linear corrected;
}

interpolationSchemes
{
    default         linear;
    interpolate(HbyA) linear;
    interpolate(B)  linear;
}

snGradSchemes
{
    default         corrected;
}

// ************************************************************************* //
/*--------------------------------*- C++ -*----------------------------------*\
| =========                 |                                                 |
| \\      /  F ield         | foam-extend: Open Source CFD                    |
|  \\    /   O peration     | Version:     5.0                                |
|   \\  /    A nd           | Web:         http://www.foam-extend.org         |
|    \\/     M anipulation  | For copyright notice see file Copyright         |
\*---------------------------------------------------------------------------*/
FoamFile
{
    version     2.0;
    format      ascii;
    class       dictionary;
    object      fvSolution;
}
// * * * * * * * * * * * * * * * * * * * * * * * * * * * * * * * * * * * * * //

solvers
{
    p
    {
        solver           CG;
        preconditioner   Cholesky;
        tolerance        1e-06;
        relTol           0;
    }
    U
    {
        solver           BiCGStab;
        preconditioner   DILU;
        tolerance        1e-05;
        relTol           0;
    }
    B
    {
        solver           BiCGStab;
        preconditioner   DILU;
        tolerance        1e-05;
        relTol           0;
    }
    pB
    {
        solver           CG;
        preconditioner   Cholesky;
        tolerance        1e-05;
        relTol           0;
    }
}

PISO
{
    nCorrectors     3;
    nNonOrthogonalCorrectors 0;
}

BPISO
{
    nCorrectors     3;
}

// ************************************************************************* //
/*---------------------------------------------------------------------------*\
| =========                 |                                                 |
| \\      /  F ield         | foam-extend: Open Source CFD                    |
|  \\    /   O peration     | Version:     5.0                                |
|   \\  /    A nd           | Web:         http://www.foam-extend.org         |
|    \\/     M anipulation  | For copyright notice see file Copyright         |
\*---------------------------------------------------------------------------*/
Build  : 5.0-73c2a3d539c2
Exec   : mhdFoam
Date   : Jul 10 2023
Time   : 11:41:59
Host   : "ojm40-OMEN"
PID    : 332862
CtrlDict : "/home/ojm40/foam/ojm40-5.0/work/liquidMetalBattery/run/hartmannMHD/system/controlDict"
Case   : /home/ojm40/foam/ojm40-5.0/work/liquidMetalBattery/run/hartmannMHD
nProcs : 1
sigFpe : Enabling floating point exception trapping (FOAM_SIGFPE).
allowSystemOperations : Disallowing user-supplied system call operations

// * * * * * * * * * * * * * * * * * * * * * * * * * * * * * * * * * * * * * //
Create time

Create mesh for time = 0


PISO: Operating solver in PISO mode

Reading transportProperties

Reading field p

Reading field U

Reading/calculating face flux field phi

Reading field pB

Reading field B

Calculating face flux


Starting time loop
Time = 0.00133333

Courant Number mean: 0 max: 0.00333333 velocity magnitude: 1
BiCGStab:  Solving for Ux, Initial residual = 1, Final residual = 6.96084e-09, No Iterations 1
BiCGStab:  Solving for Uy, Initial residual = 0, Final residual = 0, No Iterations 0
CholeskyCG:  Solving for p, Initial residual = 1, Final residual = 8.32537e-07, No Iterations 29
time step continuity errors : sum local = 5.55025e-11, global = -6.44597e-13, cumulative = -6.44597e-13
CholeskyCG:  Solving for p, Initial residual = 0.00118447, Final residual = 8.49044e-07, No Iterations 24
time step continuity errors : sum local = 2.94644e-09, global = -2.55086e-11, cumulative = -2.61532e-11
CholeskyCG:  Solving for p, Initial residual = 2.1672e-05, Final residual = 3.47999e-07, No Iterations 22
time step continuity errors : sum local = 1.13751e-09, global = 3.50517e-11, cumulative = 8.8985e-12
BiCGStab:  Solving for Bx, Initial residual = 1, Final residual = 7.121e-09, No Iterations 1
BiCGStab:  Solving for By, Initial residual = 1, Final residual = 8.59466e-09, No Iterations 1
CholeskyCG:  Solving for pB, Initial residual = 1, Final residual = 4.27822e-06, No Iterations 25
magnetic flux divergence error = 1.82469e-13
BiCGStab:  Solving for Bx, Initial residual = 1.09713e-05, Final residual = 7.45387e-14, No Iterations 1
BiCGStab:  Solving for By, Initial residual = 0.000228099, Final residual = 1.79254e-12, No Iterations 1
CholeskyCG:  Solving for pB, Initial residual = 0.000532339, Final residual = 6.10629e-06, No Iterations 3
magnetic flux divergence error = 5.21068e-13
BiCGStab:  Solving for Bx, Initial residual = 3.34955e-09, Final residual = 3.34955e-09, No Iterations 0
BiCGStab:  Solving for By, Initial residual = 8.97104e-08, Final residual = 8.97104e-08, No Iterations 0
CholeskyCG:  Solving for pB, Initial residual = 6.10403e-06, Final residual = 6.10403e-06, No Iterations 0
magnetic flux divergence error = 5.21068e-13
Time = 0.00266667

Courant Number mean: 0.000352336 max: 0.00337556 velocity magnitude: 1.01267
BiCGStab:  Solving for Ux, Initial residual = 0.951268, Final residual = 1.73571e-09, No Iterations 1
BiCGStab:  Solving for Uy, Initial residual = 0.329246, Final residual = 2.84826e-09, No Iterations 1
CholeskyCG:  Solving for p, Initial residual = 0.0205261, Final residual = 2.67188e-07, No Iterations 27
time step continuity errors : sum local = 8.57475e-10, global = 7.99079e-12, cumulative = 1.68893e-11
CholeskyCG:  Solving for p, Initial residual = 0.0227089, Final residual = 9.45803e-07, No Iterations 26
time step continuity errors : sum local = 1.67207e-10, global = 1.58459e-12, cumulative = 1.84739e-11
CholeskyCG:  Solving for p, Initial residual = 0.0010463, Final residual = 6.52038e-07, No Iterations 24
time step continuity errors : sum local = 3.7027e-11, global = -6.74768e-14, cumulative = 1.84064e-11
BiCGStab:  Solving for Bx, Initial residual = 0.323398, Final residual = 2.29898e-09, No Iterations 1
BiCGStab:  Solving for By, Initial residual = 0.486253, Final residual = 4.20867e-09, No Iterations 1
CholeskyCG:  Solving for pB, Initial residual = 0.169966, Final residual = 8.29808e-06, No Iterations 18
magnetic flux divergence error = 8.00885e-13
BiCGStab:  Solving for Bx, Initial residual = 4.94713e-06, Final residual = 4.94713e-06, No Iterations 0
BiCGStab:  Solving for By, Initial residual = 0.00015567, Final residual = 1.23748e-12, No Iterations 1
CholeskyCG:  Solving for pB, Initial residual = 4.5411e-05, Final residual = 4.14417e-06, No Iterations 1
magnetic flux divergence error = 4.46189e-13
BiCGStab:  Solving for Bx, Initial residual = 4.94715e-06, Final residual = 4.94715e-06, No Iterations 0
BiCGStab:  Solving for By, Initial residual = 1.36784e-09, Final residual = 1.36784e-09, No Iterations 0
CholeskyCG:  Solving for pB, Initial residual = 4.14416e-06, Final residual = 4.14416e-06, No Iterations 0
magnetic flux divergence error = 4.46189e-13
Time = 0.004

Courant Number mean: 0.000353704 max: 0.00341591 velocity magnitude: 1.02477
BiCGStab:  Solving for Ux, Initial residual = 0.130204, Final residual = 9.89153e-10, No Iterations 1
BiCGStab:  Solving for Uy, Initial residual = 0.194951, Final residual = 1.69025e-09, No Iterations 1
CholeskyCG:  Solving for p, Initial residual = 0.0408475, Final residual = 3.3946e-07, No Iterations 27
time step continuity errors : sum local = 1.87525e-11, global = 7.32369e-14, cumulative = 1.84796e-11
CholeskyCG:  Solving for p, Initial residual = 0.00132682, Final residual = 8.69806e-07, No Iterations 24
time step continuity errors : sum local = 4.45306e-11, global = -9.61331e-14, cumulative = 1.83835e-11
CholeskyCG:  Solving for p, Initial residual = 3.89989e-05, Final residual = 9.68972e-07, No Iterations 4
time step continuity errors : sum local = 4.97526e-11, global = -5.41162e-12, cumulative = 1.29719e-11
BiCGStab:  Solving for Bx, Initial residual = 0.189834, Final residual = 1.32811e-09, No Iterations 1
BiCGStab:  Solving for By, Initial residual = 0.316307, Final residual = 2.75549e-09, No Iterations 1
CholeskyCG:  Solving for pB, Initial residual = 0.0608225, Final residual = 8.77259e-06, No Iterations 10
magnetic flux divergence error = 9.66828e-13
BiCGStab:  Solving for Bx, Initial residual = 3.14997e-06, Final residual = 3.14997e-06, No Iterations 0
BiCGStab:  Solving for By, Initial residual = 0.000117449, Final residual = 9.36573e-13, No Iterations 1
CholeskyCG:  Solving for pB, Initial residual = 6.38061e-05, Final residual = 5.80782e-06, No Iterations 1
magnetic flux divergence error = 6.54848e-13
BiCGStab:  Solving for Bx, Initial residual = 3.14998e-06, Final residual = 3.14998e-06, No Iterations 0
BiCGStab:  Solving for By, Initial residual = 1.55296e-09, Final residual = 1.55296e-09, No Iterations 0
CholeskyCG:  Solving for pB, Initial residual = 5.80779e-06, Final residual = 5.80779e-06, No Iterations 0
magnetic flux divergence error = 6.54848e-13
Time = 0.00533333

Courant Number mean: 0.000354988 max: 0.00345439 velocity magnitude: 1.03632
BiCGStab:  Solving for Ux, Initial residual = 0.0975892, Final residual = 7.36286e-10, No Iterations 1
BiCGStab:  Solving for Uy, Initial residual = 0.136397, Final residual = 1.18693e-09, No Iterations 1
CholeskyCG:  Solving for p, Initial residual = 0.0292633, Final residual = 2.49732e-07, No Iterations 27
time step continuity errors : sum local = 1.2499e-11, global = 5.42922e-14, cumulative = 1.30262e-11
CholeskyCG:  Solving for p, Initial residual = 0.000953181, Final residual = 6.32792e-07, No Iterations 24
time step continuity errors : sum local = 2.97331e-11, global = -4.71738e-14, cumulative = 1.2979e-11
CholeskyCG:  Solving for p, Initial residual = 2.75818e-05, Final residual = 7.64346e-07, No Iterations 4
time step continuity errors : sum local = 3.60104e-11, global = -4.96299e-12, cumulative = 8.01602e-12
BiCGStab:  Solving for Bx, Initial residual = 0.133045, Final residual = 9.02769e-10, No Iterations 1
BiCGStab:  Solving for By, Initial residual = 0.231585, Final residual = 2.03069e-09, No Iterations 1
CholeskyCG:  Solving for pB, Initial residual = 0.0477433, Final residual = 9.04885e-06, No Iterations 10
magnetic flux divergence error = 1.02642e-12
BiCGStab:  Solving for Bx, Initial residual = 2.30132e-06, Final residual = 2.30132e-06, No Iterations 0
BiCGStab:  Solving for By, Initial residual = 9.38426e-05, Final residual = 7.56076e-13, No Iterations 1
CholeskyCG:  Solving for pB, Initial residual = 8.10662e-05, Final residual = 6.64518e-06, No Iterations 1
magnetic flux divergence error = 7.58278e-13
BiCGStab:  Solving for Bx, Initial residual = 2.30134e-06, Final residual = 2.30134e-06, No Iterations 0
BiCGStab:  Solving for By, Initial residual = 1.69985e-09, Final residual = 1.69985e-09, No Iterations 0
CholeskyCG:  Solving for pB, Initial residual = 6.64513e-06, Final residual = 6.64513e-06, No Iterations 0
magnetic flux divergence error = 7.58278e-13
Time = 0.00666667

Courant Number mean: 0.000356193 max: 0.0034912 velocity magnitude: 1.04736
BiCGStab:  Solving for Ux, Initial residual = 0.0764614, Final residual = 5.72878e-10, No Iterations 1
BiCGStab:  Solving for Uy, Initial residual = 0.103558, Final residual = 9.05125e-10, No Iterations 1
CholeskyCG:  Solving for p, Initial residual = 0.0218205, Final residual = 7.8651e-07, No Iterations 26
time step continuity errors : sum local = 3.63717e-11, global = -7.55533e-13, cumulative = 7.26049e-12
CholeskyCG:  Solving for p, Initial residual = 0.000711226, Final residual = 4.77004e-07, No Iterations 24
time step continuity errors : sum local = 2.08842e-11, global = -2.67521e-14, cumulative = 7.23373e-12
CholeskyCG:  Solving for p, Initial residual = 2.03815e-05, Final residual = 6.16774e-07, No Iterations 4
time step continuity errors : sum local = 2.70709e-11, global = -4.55567e-12, cumulative = 2.67806e-12
BiCGStab:  Solving for Bx, Initial residual = 0.101769, Final residual = 6.59787e-10, No Iterations 1
BiCGStab:  Solving for By, Initial residual = 0.180873, Final residual = 1.59602e-09, No Iterations 1
CholeskyCG:  Solving for pB, Initial residual = 0.0402682, Final residual = 9.60798e-06, No Iterations 9
magnetic flux divergence error = 1.10504e-12
BiCGStab:  Solving for Bx, Initial residual = 1.80879e-06, Final residual = 1.80879e-06, No Iterations 0
BiCGStab:  Solving for By, Initial residual = 7.8222e-05, Final residual = 6.30346e-13, No Iterations 1
CholeskyCG:  Solving for pB, Initial residual = 9.53624e-05, Final residual = 7.55882e-06, No Iterations 1
magnetic flux divergence error = 8.76199e-13
BiCGStab:  Solving for Bx, Initial residual = 1.8088e-06, Final residual = 1.8088e-06, No Iterations 0
BiCGStab:  Solving for By, Initial residual = 1.82683e-09, Final residual = 1.82683e-09, No Iterations 0
CholeskyCG:  Solving for pB, Initial residual = 7.5587e-06, Final residual = 7.5587e-06, No Iterations 0
magnetic flux divergence error = 8.76199e-13
Time = 0.008

Courant Number mean: 0.000357328 max: 0.00352649 velocity magnitude: 1.05795
BiCGStab:  Solving for Ux, Initial residual = 0.0619322, Final residual = 4.59834e-10, No Iterations 1
BiCGStab:  Solving for Uy, Initial residual = 0.0824799, Final residual = 7.25057e-10, No Iterations 1
CholeskyCG:  Solving for p, Initial residual = 0.016846, Final residual = 6.09327e-07, No Iterations 26
time step continuity errors : sum local = 2.63699e-11, global = -5.43156e-13, cumulative = 2.13491e-12
CholeskyCG:  Solving for p, Initial residual = 0.000546068, Final residual = 3.69753e-07, No Iterations 24
time step continuity errors : sum local = 1.52406e-11, global = -1.82851e-14, cumulative = 2.11662e-12
CholeskyCG:  Solving for p, Initial residual = 1.56156e-05, Final residual = 8.59524e-07, No Iterations 3
time step continuity errors : sum local = 3.5512e-11, global = -4.18901e-12, cumulative = -2.07238e-12
BiCGStab:  Solving for Bx, Initial residual = 0.082067, Final residual = 5.00464e-10, No Iterations 1
BiCGStab:  Solving for By, Initial residual = 0.147166, Final residual = 1.30653e-09, No Iterations 1
CholeskyCG:  Solving for pB, Initial residual = 0.0459012, Final residual = 9.61003e-06, No Iterations 10
magnetic flux divergence error = 1.12265e-12
BiCGStab:  Solving for Bx, Initial residual = 1.47651e-06, Final residual = 1.47651e-06, No Iterations 0
BiCGStab:  Solving for By, Initial residual = 6.67103e-05, Final residual = 5.37163e-13, No Iterations 1
CholeskyCG:  Solving for pB, Initial residual = 0.000110598, Final residual = 8.4551e-06, No Iterations 1
magnetic flux divergence error = 9.95387e-13
BiCGStab:  Solving for Bx, Initial residual = 1.47652e-06, Final residual = 1.47652e-06, No Iterations 0
BiCGStab:  Solving for By, Initial residual = 1.89782e-09, Final residual = 1.89782e-09, No Iterations 0
CholeskyCG:  Solving for pB, Initial residual = 8.45487e-06, Final residual = 8.45487e-06, No Iterations 0
magnetic flux divergence error = 9.95387e-13
Time = 0.00933333

Courant Number mean: 0.000358397 max: 0.00356037 velocity magnitude: 1.06811
BiCGStab:  Solving for Ux, Initial residual = 0.0513638, Final residual = 3.77232e-10, No Iterations 1
BiCGStab:  Solving for Uy, Initial residual = 0.0679426, Final residual = 6.0036e-10, No Iterations 1
CholeskyCG:  Solving for p, Initial residual = 0.013382, Final residual = 4.82047e-07, No Iterations 26
time step continuity errors : sum local = 1.96972e-11, global = -4.05227e-13, cumulative = -2.47761e-12
CholeskyCG:  Solving for p, Initial residual = 0.000429943, Final residual = 2.92969e-07, No Iterations 24
time step continuity errors : sum local = 1.14527e-11, global = -1.53825e-14, cumulative = -2.49299e-12
CholeskyCG:  Solving for p, Initial residual = 1.23287e-05, Final residual = 6.974e-07, No Iterations 3
time step continuity errors : sum local = 2.73235e-11, global = -3.85104e-12, cumulative = -6.34404e-12
BiCGStab:  Solving for Bx, Initial residual = 0.0685824, Final residual = 3.86825e-10, No Iterations 1
BiCGStab:  Solving for By, Initial residual = 0.123183, Final residual = 1.10011e-09, No Iterations 1
CholeskyCG:  Solving for pB, Initial residual = 0.0341614, Final residual = 9.72576e-06, No Iterations 7
magnetic flux divergence error = 1.17047e-12
BiCGStab:  Solving for Bx, Initial residual = 1.24779e-06, Final residual = 1.24779e-06, No Iterations 0
BiCGStab:  Solving for By, Initial residual = 5.81859e-05, Final residual = 4.67359e-13, No Iterations 1
CholeskyCG:  Solving for pB, Initial residual = 0.000118497, Final residual = 8.99902e-06, No Iterations 1
magnetic flux divergence error = 1.10661e-12
BiCGStab:  Solving for Bx, Initial residual = 1.2478e-06, Final residual = 1.2478e-06, No Iterations 0
BiCGStab:  Solving for By, Initial residual = 1.92979e-09, Final residual = 1.92979e-09, No Iterations 0
CholeskyCG:  Solving for pB, Initial residual = 8.99874e-06, Final residual = 8.99874e-06, No Iterations 0
magnetic flux divergence error = 1.10661e-12
Time = 0.0106667

Courant Number mean: 0.000359406 max: 0.00359295 velocity magnitude: 1.07788
BiCGStab:  Solving for Ux, Initial residual = 0.0434062, Final residual = 3.14367e-10, No Iterations 1
BiCGStab:  Solving for Uy, Initial residual = 0.0572733, Final residual = 5.08971e-10, No Iterations 1
CholeskyCG:  Solving for p, Initial residual = 0.0108955, Final residual = 3.88067e-07, No Iterations 26
time step continuity errors : sum local = 1.50685e-11, global = -3.1173e-13, cumulative = -6.65577e-12
CholeskyCG:  Solving for p, Initial residual = 0.000345928, Final residual = 2.36531e-07, No Iterations 24
time step continuity errors : sum local = 8.81756e-12, global = -1.46582e-14, cumulative = -6.67042e-12
CholeskyCG:  Solving for p, Initial residual = 9.98695e-06, Final residual = 5.74479e-07, No Iterations 3
time step continuity errors : sum local = 2.14609e-11, global = -3.54393e-12, cumulative = -1.02144e-11
BiCGStab:  Solving for Bx, Initial residual = 0.0588126, Final residual = 3.01755e-10, No Iterations 1
BiCGStab:  Solving for By, Initial residual = 0.105284, Final residual = 9.45716e-10, No Iterations 1
CholeskyCG:  Solving for pB, Initial residual = 0.027946, Final residual = 8.9042e-06, No Iterations 7
magnetic flux divergence error = 1.11509e-12
BiCGStab:  Solving for Bx, Initial residual = 1.07417e-06, Final residual = 1.07417e-06, No Iterations 0
BiCGStab:  Solving for By, Initial residual = 5.1417e-05, Final residual = 4.11995e-13, No Iterations 1
CholeskyCG:  Solving for pB, Initial residual = 0.000124708, Final residual = 9.76877e-06, No Iterations 1
magnetic flux divergence error = 1.24545e-12
BiCGStab:  Solving for Bx, Initial residual = 1.07416e-06, Final residual = 1.07416e-06, No Iterations 0
BiCGStab:  Solving for By, Initial residual = 1.97464e-09, Final residual = 1.97464e-09, No Iterations 0
CholeskyCG:  Solving for pB, Initial residual = 9.76845e-06, Final residual = 9.76845e-06, No Iterations 0
magnetic flux divergence error = 1.24545e-12
Time = 0.012

Courant Number mean: 0.000360359 max: 0.00362433 velocity magnitude: 1.0873
BiCGStab:  Solving for Ux, Initial residual = 0.0373523, Final residual = 2.65451e-10, No Iterations 1
BiCGStab:  Solving for Uy, Initial residual = 0.0490586, Final residual = 4.3896e-10, No Iterations 1
CholeskyCG:  Solving for p, Initial residual = 0.00906306, Final residual = 3.16788e-07, No Iterations 26
time step continuity errors : sum local = 1.1746e-11, global = -2.4578e-13, cumulative = -1.04601e-11
CholeskyCG:  Solving for p, Initial residual = 0.000284536, Final residual = 9.36201e-07, No Iterations 23
time step continuity errors : sum local = 3.34223e-11, global = -7.20009e-13, cumulative = -1.11801e-11
CholeskyCG:  Solving for p, Initial residual = 8.81272e-06, Final residual = 9.27981e-07, No Iterations 2
time step continuity errors : sum local = 3.31948e-11, global = -3.27131e-12, cumulative = -1.44514e-11
BiCGStab:  Solving for Bx, Initial residual = 0.0514361, Final residual = 2.35795e-10, No Iterations 1
BiCGStab:  Solving for By, Initial residual = 0.0914425, Final residual = 8.26782e-10, No Iterations 1
CholeskyCG:  Solving for pB, Initial residual = 0.0264645, Final residual = 9.84309e-06, No Iterations 11
magnetic flux divergence error = 1.27539e-12
BiCGStab:  Solving for Bx, Initial residual = 9.4417e-07, Final residual = 9.4417e-07, No Iterations 0
BiCGStab:  Solving for By, Initial residual = 4.59398e-05, Final residual = 3.67457e-13, No Iterations 1
CholeskyCG:  Solving for pB, Initial residual = 0.000132502, Final residual = 5.09004e-06, No Iterations 2
magnetic flux divergence error = 6.70109e-13
BiCGStab:  Solving for Bx, Initial residual = 9.44152e-07, Final residual = 9.44152e-07, No Iterations 0
BiCGStab:  Solving for By, Initial residual = 2.08745e-09, Final residual = 2.08745e-09, No Iterations 0
CholeskyCG:  Solving for pB, Initial residual = 5.08985e-06, Final residual = 5.08985e-06, No Iterations 0
magnetic flux divergence error = 6.70109e-13
Time = 0.0133333

Courant Number mean: 0.000361265 max: 0.0036546 velocity magnitude: 1.09638
BiCGStab:  Solving for Ux, Initial residual = 0.0333192, Final residual = 2.26454e-10, No Iterations 1
BiCGStab:  Solving for Uy, Initial residual = 0.0426269, Final residual = 3.83968e-10, No Iterations 1
CholeskyCG:  Solving for p, Initial residual = 0.00768062, Final residual = 9.3178e-07, No Iterations 25
time step continuity errors : sum local = 3.31179e-11, global = -6.09463e-13, cumulative = -1.50609e-11
CholeskyCG:  Solving for p, Initial residual = 0.000237769, Final residual = 7.81649e-07, No Iterations 23
time step continuity errors : sum local = 2.68145e-11, global = -5.87099e-13, cumulative = -1.5648e-11
CholeskyCG:  Solving for p, Initial residual = 7.43851e-06, Final residual = 7.68479e-07, No Iterations 2
time step continuity errors : sum local = 2.64123e-11, global = -3.01633e-12, cumulative = -1.86643e-11
BiCGStab:  Solving for Bx, Initial residual = 0.0456891, Final residual = 1.83695e-10, No Iterations 1
BiCGStab:  Solving for By, Initial residual = 0.0804536, Final residual = 7.32307e-10, No Iterations 1
CholeskyCG:  Solving for pB, Initial residual = 0.0274665, Final residual = 8.31019e-06, No Iterations 6
magnetic flux divergence error = 1.10802e-12
BiCGStab:  Solving for Bx, Initial residual = 8.41514e-07, Final residual = 8.41514e-07, No Iterations 0
BiCGStab:  Solving for By, Initial residual = 4.14041e-05, Final residual = 3.30781e-13, No Iterations 1
CholeskyCG:  Solving for pB, Initial residual = 0.000135511, Final residual = 4.49189e-06, No Iterations 2
magnetic flux divergence error = 6.06469e-13
BiCGStab:  Solving for Bx, Initial residual = 8.41509e-07, Final residual = 8.41509e-07, No Iterations 0
BiCGStab:  Solving for By, Initial residual = 2.08231e-09, Final residual = 2.08231e-09, No Iterations 0
CholeskyCG:  Solving for pB, Initial residual = 4.49173e-06, Final residual = 4.49173e-06, No Iterations 0
magnetic flux divergence error = 6.06469e-13
Time = 0.0146667

Courant Number mean: 0.000362123 max: 0.00368385 velocity magnitude: 1.10516
BiCGStab:  Solving for Ux, Initial residual = 0.0299858, Final residual = 1.94699e-10, No Iterations 1
BiCGStab:  Solving for Uy, Initial residual = 0.0374696, Final residual = 3.3972e-10, No Iterations 1
CholeskyCG:  Solving for p, Initial residual = 0.00661403, Final residual = 7.79781e-07, No Iterations 25
time step continuity errors : sum local = 2.66515e-11, global = -4.67396e-13, cumulative = -1.91317e-11
CholeskyCG:  Solving for p, Initial residual = 0.000200784, Final residual = 6.61336e-07, No Iterations 23
time step continuity errors : sum local = 2.1863e-11, global = -4.8682e-13, cumulative = -1.96186e-11
CholeskyCG:  Solving for p, Initial residual = 6.37625e-06, Final residual = 6.41862e-07, No Iterations 2
time step continuity errors : sum local = 2.1257e-11, global = -2.78379e-12, cumulative = -2.24023e-11
BiCGStab:  Solving for Bx, Initial residual = 0.0411001, Final residual = 1.43273e-10, No Iterations 1
BiCGStab:  Solving for By, Initial residual = 0.0715404, Final residual = 6.55787e-10, No Iterations 1
CholeskyCG:  Solving for pB, Initial residual = 0.0240331, Final residual = 8.78908e-06, No Iterations 6
magnetic flux divergence error = 1.20211e-12
BiCGStab:  Solving for Bx, Initial residual = 7.59396e-07, Final residual = 7.59396e-07, No Iterations 0
BiCGStab:  Solving for By, Initial residual = 3.76068e-05, Final residual = 3.00705e-13, No Iterations 1
CholeskyCG:  Solving for pB, Initial residual = 0.000139594, Final residual = 5.44966e-06, No Iterations 2
magnetic flux divergence error = 7.54956e-13
BiCGStab:  Solving for Bx, Initial residual = 7.5939e-07, Final residual = 7.5939e-07, No Iterations 0
BiCGStab:  Solving for By, Initial residual = 2.08381e-09, Final residual = 2.08381e-09, No Iterations 0
CholeskyCG:  Solving for pB, Initial residual = 5.44945e-06, Final residual = 5.44945e-06, No Iterations 0
magnetic flux divergence error = 7.54956e-13
Time = 0.016

Courant Number mean: 0.000362938 max: 0.00371214 velocity magnitude: 1.11364
BiCGStab:  Solving for Ux, Initial residual = 0.0271856, Final residual = 1.70306e-10, No Iterations 1
BiCGStab:  Solving for Uy, Initial residual = 0.0332282, Final residual = 3.03328e-10, No Iterations 1
CholeskyCG:  Solving for p, Initial residual = 0.00577623, Final residual = 6.58778e-07, No Iterations 25
time step continuity errors : sum local = 2.17095e-11, global = -3.59119e-13, cumulative = -2.27615e-11
CholeskyCG:  Solving for p, Initial residual = 0.000172035, Final residual = 5.65941e-07, No Iterations 23
time step continuity errors : sum local = 1.80739e-11, global = -4.10848e-13, cumulative = -2.31723e-11
CholeskyCG:  Solving for p, Initial residual = 5.54447e-06, Final residual = 5.40371e-07, No Iterations 2
time step continuity errors : sum local = 1.72865e-11, global = -2.57228e-12, cumulative = -2.57446e-11
BiCGStab:  Solving for Bx, Initial residual = 0.0373605, Final residual = 1.18829e-10, No Iterations 1
BiCGStab:  Solving for By, Initial residual = 0.0641621, Final residual = 5.92595e-10, No Iterations 1
CholeskyCG:  Solving for pB, Initial residual = 0.0217241, Final residual = 8.86647e-06, No Iterations 6
magnetic flux divergence error = 1.24514e-12
BiCGStab:  Solving for Bx, Initial residual = 6.92561e-07, Final residual = 6.92561e-07, No Iterations 0
BiCGStab:  Solving for By, Initial residual = 3.43895e-05, Final residual = 2.76159e-13, No Iterations 1
CholeskyCG:  Solving for pB, Initial residual = 0.000141964, Final residual = 5.69148e-06, No Iterations 2
magnetic flux divergence error = 8.10085e-13
BiCGStab:  Solving for Bx, Initial residual = 6.92552e-07, Final residual = 6.92552e-07, No Iterations 0
BiCGStab:  Solving for By, Initial residual = 2.08104e-09, Final residual = 2.08104e-09, No Iterations 0
CholeskyCG:  Solving for pB, Initial residual = 5.69126e-06, Final residual = 5.69126e-06, No Iterations 0
magnetic flux divergence error = 8.10085e-13
Time = 0.0173333

Courant Number mean: 0.000363712 max: 0.00373954 velocity magnitude: 1.12186
BiCGStab:  Solving for Ux, Initial residual = 0.0248283, Final residual = 1.50655e-10, No Iterations 1
BiCGStab:  Solving for Uy, Initial residual = 0.0297088, Final residual = 2.7297e-10, No Iterations 1
CholeskyCG:  Solving for p, Initial residual = 0.00510585, Final residual = 5.61013e-07, No Iterations 25
time step continuity errors : sum local = 1.78672e-11, global = -2.76006e-13, cumulative = -2.60206e-11
CholeskyCG:  Solving for p, Initial residual = 0.000151268, Final residual = 4.89164e-07, No Iterations 23
time step continuity errors : sum local = 1.51239e-11, global = -3.51557e-13, cumulative = -2.63722e-11
CholeskyCG:  Solving for p, Initial residual = 4.87902e-06, Final residual = 4.58084e-07, No Iterations 2
time step continuity errors : sum local = 1.41857e-11, global = -2.37959e-12, cumulative = -2.87517e-11
BiCGStab:  Solving for Bx, Initial residual = 0.0342613, Final residual = 1.09048e-10, No Iterations 1
BiCGStab:  Solving for By, Initial residual = 0.0579674, Final residual = 5.39372e-10, No Iterations 1
CholeskyCG:  Solving for pB, Initial residual = 0.0202555, Final residual = 7.97695e-06, No Iterations 6
magnetic flux divergence error = 1.14998e-12
BiCGStab:  Solving for Bx, Initial residual = 6.36997e-07, Final residual = 6.36997e-07, No Iterations 0
BiCGStab:  Solving for By, Initial residual = 3.16326e-05, Final residual = 2.55545e-13, No Iterations 1