/*--------------------------------*- C++ -*----------------------------------*\
| =========                 |                                                 |
| \\      /  F ield         | foam-extend: Open Source CFD                    |
|  \\    /   O peration     | Version:     5.0                                |
|   \\  /    A nd           | Web:         http://www.foam-extend.org         |
|    \\/     M anipulation  | For copyright notice see file Copyright         |
\*---------------------------------------------------------------------------*/
FoamFile
{
    version     2.0;
    format      ascii;
    class       dictionary;
    object      fvSchemes;
}
// * * * * * * * * * * * * * * * * * * * * * * * * * * * * * * * * * * * * * //

ddtSchemes
{
    default Euler;
}

gradSchemes
{
    default         Gauss linear;
    grad(p)         Gauss linear;
    grad((DBU*magSqr(B))) Gauss linear;
}

divSchemes
{
    default         none;
    div(phi,U)      Gauss linear;
    div(phiB,U)     Gauss linear;
    div(phi,B)      Gauss linear;
    div(phiB,((2*DBU)*B)) Gauss linear;
}

laplacianSchemes
{
    default         none;
    laplacian(nu,U) Gauss linear corrected;
    laplacian((1|A(U)),p) Gauss linear corrected;
    laplacian(DB,B) Gauss linear corrected;
    laplacian((1|A(B)),pB) Gauss linear corrected;
}

interpolationSchemes
{
    default         linear;
    interpolate(HbyA) linear;
    interpolate(B)  linear;
}

snGradSchemes
{
    default         corrected;
}

// ************************************************************************* //
/*--------------------------------*- C++ -*----------------------------------*\
| =========                 |                                                 |
| \\      /  F ield         | foam-extend: Open Source CFD                    |
|  \\    /   O peration     | Version:     5.0                                |
|   \\  /    A nd           | Web:         http://www.foam-extend.org         |
|    \\/     M anipulation  | For copyright notice see file Copyright         |
\*---------------------------------------------------------------------------*/
FoamFile
{
    version     2.0;
    format      ascii;
    class       dictionary;
    object      fvSolution;
}
// * * * * * * * * * * * * * * * * * * * * * * * * * * * * * * * * * * * * * //

solvers
{
    p
    {
        solver           CG;
        preconditioner   Cholesky;
        tolerance        1e-06;
        relTol           0;
    }
    U
    {
        solver           BiCGStab;
        preconditioner   DILU;
        tolerance        1e-05;
        relTol           0;
    }
    B
    {
        solver           BiCGStab;
        preconditioner   DILU;
        tolerance        1e-05;
        relTol           0;
    }
    pB
    {
        solver           CG;
        preconditioner   Cholesky;
        tolerance        1e-05;
        relTol           0;
    }
}

PISO
{
    nCorrectors     3;
    nNonOrthogonalCorrectors 0;
}

BPISO
{
    nCorrectors     3;
}

// ************************************************************************* //
/*---------------------------------------------------------------------------*\
| =========                 |                                                 |
| \\      /  F ield         | foam-extend: Open Source CFD                    |
|  \\    /   O peration     | Version:     5.0                                |
|   \\  /    A nd           | Web:         http://www.foam-extend.org         |
|    \\/     M anipulation  | For copyright notice see file Copyright         |
\*---------------------------------------------------------------------------*/
Build  : 5.0-73c2a3d539c2
Exec   : mhdFoam
Date   : Jul 10 2023
Time   : 12:17:26
Host   : "ojm40-OMEN"
PID    : 333844
CtrlDict : "/home/ojm40/foam/ojm40-5.0/work/liquidMetalBattery/run/hartmannMHD/system/controlDict"
Case   : /home/ojm40/foam/ojm40-5.0/work/liquidMetalBattery/run/hartmannMHD
nProcs : 1
sigFpe : Enabling floating point exception trapping (FOAM_SIGFPE).
allowSystemOperations : Disallowing user-supplied system call operations

// * * * * * * * * * * * * * * * * * * * * * * * * * * * * * * * * * * * * * //
Create time

Create mesh for time = 0


PISO: Operating solver in PISO mode

Reading transportProperties

Reading field p

Reading field U

Reading/calculating face flux field phi

Reading field pB

Reading field B

Calculating face flux


Starting time loop
Time = 0.000666667

Courant Number mean: 0 max: 0.00333333 velocity magnitude: 1
BiCGStab:  Solving for Ux, Initial residual = 1, Final residual = 1.06336e-07, No Iterations 1
BiCGStab:  Solving for Uy, Initial residual = 0, Final residual = 0, No Iterations 0
CholeskyCG:  Solving for p, Initial residual = 1, Final residual = 8.69506e-07, No Iterations 54
time step continuity errors : sum local = 2.89835e-11, global = 3.19231e-14, cumulative = 3.19231e-14
CholeskyCG:  Solving for p, Initial residual = 0.00118589, Final residual = 3.95712e-07, No Iterations 47
time step continuity errors : sum local = 1.34916e-09, global = 1.84131e-11, cumulative = 1.8445e-11
CholeskyCG:  Solving for p, Initial residual = 4.17292e-05, Final residual = 4.36647e-07, No Iterations 42
time step continuity errors : sum local = 1.31533e-09, global = 2.68616e-11, cumulative = 4.53067e-11
BiCGStab:  Solving for Bx, Initial residual = 1, Final residual = 9.09031e-08, No Iterations 1
BiCGStab:  Solving for By, Initial residual = 1, Final residual = 1.02762e-07, No Iterations 1
CholeskyCG:  Solving for pB, Initial residual = 1, Final residual = 9.17998e-06, No Iterations 37
magnetic flux divergence error = 4.81195e-13
BiCGStab:  Solving for Bx, Initial residual = 6.18238e-06, Final residual = 6.18238e-06, No Iterations 0
BiCGStab:  Solving for By, Initial residual = 0.00018889, Final residual = 1.81751e-11, No Iterations 1
CholeskyCG:  Solving for pB, Initial residual = 5.85055e-05, Final residual = 4.77301e-06, No Iterations 1
magnetic flux divergence error = 5.00392e-13
BiCGStab:  Solving for Bx, Initial residual = 6.18238e-06, Final residual = 6.18238e-06, No Iterations 0
BiCGStab:  Solving for By, Initial residual = 1.6308e-09, Final residual = 1.6308e-09, No Iterations 0
CholeskyCG:  Solving for pB, Initial residual = 4.77301e-06, Final residual = 4.77301e-06, No Iterations 0
magnetic flux divergence error = 5.00392e-13
Time = 0.00133333

Courant Number mean: 0.000343181 max: 0.00337313 velocity magnitude: 1.0134
BiCGStab:  Solving for Ux, Initial residual = 0.962568, Final residual = 1.37566e-08, No Iterations 1
BiCGStab:  Solving for Uy, Initial residual = 0.33014, Final residual = 3.50915e-08, No Iterations 1
CholeskyCG:  Solving for p, Initial residual = 0.0110579, Final residual = 3.70052e-07, No Iterations 50
time step continuity errors : sum local = 1.10365e-09, global = -1.14882e-11, cumulative = 3.38185e-11
CholeskyCG:  Solving for p, Initial residual = 0.0107868, Final residual = 8.92756e-07, No Iterations 49
time step continuity errors : sum local = 3.29409e-10, global = 5.17572e-12, cumulative = 3.89942e-11
CholeskyCG:  Solving for p, Initial residual = 0.00266465, Final residual = 9.40922e-07, No Iterations 46
time step continuity errors : sum local = 3.84169e-11, global = -3.25477e-13, cumulative = 3.86687e-11
BiCGStab:  Solving for Bx, Initial residual = 0.312065, Final residual = 2.69196e-08, No Iterations 1
BiCGStab:  Solving for By, Initial residual = 0.472601, Final residual = 4.90018e-08, No Iterations 1
CholeskyCG:  Solving for pB, Initial residual = 0.241218, Final residual = 9.05126e-06, No Iterations 35
magnetic flux divergence error = 1.14529e-12
BiCGStab:  Solving for Bx, Initial residual = 2.74336e-06, Final residual = 2.74336e-06, No Iterations 0
BiCGStab:  Solving for By, Initial residual = 0.00012428, Final residual = 1.20355e-11, No Iterations 1
CholeskyCG:  Solving for pB, Initial residual = 8.10549e-05, Final residual = 7.07566e-06, No Iterations 1
magnetic flux divergence error = 1.04883e-12
BiCGStab:  Solving for Bx, Initial residual = 2.74335e-06, Final residual = 2.74335e-06, No Iterations 0
BiCGStab:  Solving for By, Initial residual = 1.87937e-09, Final residual = 1.87937e-09, No Iterations 0
CholeskyCG:  Solving for pB, Initial residual = 7.07566e-06, Final residual = 7.07566e-06, No Iterations 0
magnetic flux divergence error = 1.04883e-12
Time = 0.002

Courant Number mean: 0.000344509 max: 0.00340951 velocity magnitude: 1.02466
BiCGStab:  Solving for Ux, Initial residual = 0.140482, Final residual = 1.51295e-08, No Iterations 1
BiCGStab:  Solving for Uy, Initial residual = 0.189413, Final residual = 2.0632e-08, No Iterations 1
CholeskyCG:  Solving for p, Initial residual = 0.0319761, Final residual = 5.86435e-07, No Iterations 49
time step continuity errors : sum local = 2.38818e-11, global = -1.47717e-13, cumulative = 3.8521e-11
CholeskyCG:  Solving for p, Initial residual = 0.00217496, Final residual = 8.07767e-07, No Iterations 46
time step continuity errors : sum local = 2.94298e-11, global = -2.4076e-13, cumulative = 3.82802e-11
CholeskyCG:  Solving for p, Initial residual = 0.00011647, Final residual = 8.10203e-07, No Iterations 6
time step continuity errors : sum local = 2.98526e-11, global = -9.18274e-12, cumulative = 2.90975e-11
BiCGStab:  Solving for Bx, Initial residual = 0.179382, Final residual = 1.39296e-08, No Iterations 1
BiCGStab:  Solving for By, Initial residual = 0.300995, Final residual = 3.1462e-08, No Iterations 1
CholeskyCG:  Solving for pB, Initial residual = 0.120383, Final residual = 9.06667e-06, No Iterations 20
magnetic flux divergence error = 1.47285e-12
BiCGStab:  Solving for Bx, Initial residual = 1.71929e-06, Final residual = 1.71929e-06, No Iterations 0
BiCGStab:  Solving for By, Initial residual = 9.19955e-05, Final residual = 8.99602e-12, No Iterations 1
CholeskyCG:  Solving for pB, Initial residual = 9.63487e-05, Final residual = 8.64299e-06, No Iterations 1
magnetic flux divergence error = 1.52691e-12
BiCGStab:  Solving for Bx, Initial residual = 1.71929e-06, Final residual = 1.71929e-06, No Iterations 0
BiCGStab:  Solving for By, Initial residual = 2.11946e-09, Final residual = 2.11946e-09, No Iterations 0
CholeskyCG:  Solving for pB, Initial residual = 8.6429e-06, Final residual = 8.6429e-06, No Iterations 0
magnetic flux divergence error = 1.52691e-12
Time = 0.00266667

Courant Number mean: 0.000345696 max: 0.00344254 velocity magnitude: 1.03473
BiCGStab:  Solving for Ux, Initial residual = 0.103149, Final residual = 1.03453e-08, No Iterations 1
BiCGStab:  Solving for Uy, Initial residual = 0.129053, Final residual = 1.42756e-08, No Iterations 1
CholeskyCG:  Solving for p, Initial residual = 0.0229028, Final residual = 4.29275e-07, No Iterations 49
time step continuity errors : sum local = 1.55217e-11, global = -9.92027e-14, cumulative = 2.89983e-11
CholeskyCG:  Solving for p, Initial residual = 0.00155357, Final residual = 5.87904e-07, No Iterations 46
time step continuity errors : sum local = 1.92831e-11, global = -1.645e-13, cumulative = 2.88338e-11
CholeskyCG:  Solving for p, Initial residual = 8.23029e-05, Final residual = 6.94366e-07, No Iterations 6
time step continuity errors : sum local = 2.30128e-11, global = -7.78705e-12, cumulative = 2.10467e-11
BiCGStab:  Solving for Bx, Initial residual = 0.12398, Final residual = 8.07501e-09, No Iterations 1
BiCGStab:  Solving for By, Initial residual = 0.216713, Final residual = 2.28258e-08, No Iterations 1
CholeskyCG:  Solving for pB, Initial residual = 0.0768556, Final residual = 8.55601e-06, No Iterations 14
magnetic flux divergence error = 1.58476e-12
BiCGStab:  Solving for Bx, Initial residual = 1.22482e-06, Final residual = 1.22482e-06, No Iterations 0
BiCGStab:  Solving for By, Initial residual = 7.23207e-05, Final residual = 7.17684e-12, No Iterations 1
CholeskyCG:  Solving for pB, Initial residual = 0.000108489, Final residual = 9.8609e-06, No Iterations 1
magnetic flux divergence error = 1.91088e-12
BiCGStab:  Solving for Bx, Initial residual = 1.2248e-06, Final residual = 1.2248e-06, No Iterations 0
BiCGStab:  Solving for By, Initial residual = 2.24729e-09, Final residual = 2.24729e-09, No Iterations 0
CholeskyCG:  Solving for pB, Initial residual = 9.86064e-06, Final residual = 9.86064e-06, No Iterations 0
magnetic flux divergence error = 1.91088e-12
Time = 0.00333333

Courant Number mean: 0.000346768 max: 0.0034729 velocity magnitude: 1.04425
BiCGStab:  Solving for Ux, Initial residual = 0.0803223, Final residual = 7.50944e-09, No Iterations 1
BiCGStab:  Solving for Uy, Initial residual = 0.0956981, Final residual = 1.07369e-08, No Iterations 1
CholeskyCG:  Solving for p, Initial residual = 0.0172984, Final residual = 8.21479e-07, No Iterations 48
time step continuity errors : sum local = 2.68527e-11, global = 3.25674e-13, cumulative = 2.13724e-11
CholeskyCG:  Solving for p, Initial residual = 0.00116282, Final residual = 4.40193e-07, No Iterations 46
time step continuity errors : sum local = 1.31936e-11, global = -1.12645e-13, cumulative = 2.12598e-11
CholeskyCG:  Solving for p, Initial residual = 6.123e-05, Final residual = 8.6489e-07, No Iterations 5
time step continuity errors : sum local = 2.61701e-11, global = -6.60107e-12, cumulative = 1.46587e-11
BiCGStab:  Solving for Bx, Initial residual = 0.0940592, Final residual = 4.68981e-09, No Iterations 1
BiCGStab:  Solving for By, Initial residual = 0.166909, Final residual = 1.77053e-08, No Iterations 1
CholeskyCG:  Solving for pB, Initial residual = 0.0539893, Final residual = 8.30466e-06, No Iterations 13
magnetic flux divergence error = 1.66932e-12
BiCGStab:  Solving for Bx, Initial residual = 9.39525e-07, Final residual = 9.39525e-07, No Iterations 0
BiCGStab:  Solving for By, Initial residual = 5.95027e-05, Final residual = 5.98399e-12, No Iterations 1
CholeskyCG:  Solving for pB, Initial residual = 0.000116165, Final residual = 4.25836e-06, No Iterations 2
magnetic flux divergence error = 8.86745e-13
BiCGStab:  Solving for Bx, Initial residual = 9.39501e-07, Final residual = 9.39501e-07, No Iterations 0
BiCGStab:  Solving for By, Initial residual = 2.44929e-09, Final residual = 2.44929e-09, No Iterations 0
CholeskyCG:  Solving for pB, Initial residual = 4.25823e-06, Final residual = 4.25823e-06, No Iterations 0
magnetic flux divergence error = 8.86745e-13
Time = 0.004

Courant Number mean: 0.000347741 max: 0.00350099 velocity magnitude: 1.05287
BiCGStab:  Solving for Ux, Initial residual = 0.0643442, Final residual = 5.55924e-09, No Iterations 1
BiCGStab:  Solving for Uy, Initial residual = 0.0747636, Final residual = 8.49848e-09, No Iterations 1
CholeskyCG:  Solving for p, Initial residual = 0.0136152, Final residual = 6.31776e-07, No Iterations 48
time step continuity errors : sum local = 1.89142e-11, global = 2.3088e-13, cumulative = 1.48896e-11
CholeskyCG:  Solving for p, Initial residual = 0.000899139, Final residual = 8.33361e-07, No Iterations 45
time step continuity errors : sum local = 2.30791e-11, global = 2.96944e-13, cumulative = 1.51865e-11
CholeskyCG:  Solving for p, Initial residual = 4.80145e-05, Final residual = 7.12636e-07, No Iterations 5
time step continuity errors : sum local = 1.99072e-11, global = -5.63042e-12, cumulative = 9.55609e-12
BiCGStab:  Solving for Bx, Initial residual = 0.0755801, Final residual = 2.92985e-09, No Iterations 1
BiCGStab:  Solving for By, Initial residual = 0.134159, Final residual = 1.43592e-08, No Iterations 1
CholeskyCG:  Solving for pB, Initial residual = 0.0466898, Final residual = 8.66992e-06, No Iterations 11
magnetic flux divergence error = 1.8566e-12
BiCGStab:  Solving for Bx, Initial residual = 7.58711e-07, Final residual = 7.58711e-07, No Iterations 0
BiCGStab:  Solving for By, Initial residual = 5.04721e-05, Final residual = 5.13612e-12, No Iterations 1
CholeskyCG:  Solving for pB, Initial residual = 0.000122729, Final residual = 4.26755e-06, No Iterations 2
magnetic flux divergence error = 9.39072e-13
BiCGStab:  Solving for Bx, Initial residual = 7.58689e-07, Final residual = 7.58689e-07, No Iterations 0
BiCGStab:  Solving for By, Initial residual = 2.49623e-09, Final residual = 2.49623e-09, No Iterations 0
CholeskyCG:  Solving for pB, Initial residual = 4.26741e-06, Final residual = 4.26741e-06, No Iterations 0
magnetic flux divergence error = 9.39072e-13
Time = 0.00466667

Courant Number mean: 0.000348631 max: 0.00352715 velocity magnitude: 1.06062
BiCGStab:  Solving for Ux, Initial residual = 0.0523704, Final residual = 4.14051e-09, No Iterations 1
BiCGStab:  Solving for Uy, Initial residual = 0.0605099, Final residual = 6.96493e-09, No Iterations 1
CholeskyCG:  Solving for p, Initial residual = 0.0110774, Final residual = 4.94444e-07, No Iterations 48
time step continuity errors : sum local = 1.36943e-11, global = 1.6951e-13, cumulative = 9.7256e-12
CholeskyCG:  Solving for p, Initial residual = 0.000712389, Final residual = 6.54126e-07, No Iterations 45
time step continuity errors : sum local = 1.68859e-11, global = 2.20949e-13, cumulative = 9.94655e-12
CholeskyCG:  Solving for p, Initial residual = 3.85353e-05, Final residual = 9.13276e-07, No Iterations 4
time step continuity errors : sum local = 2.3762e-11, global = -4.80602e-12, cumulative = 5.14053e-12
BiCGStab:  Solving for Bx, Initial residual = 0.0631737, Final residual = 2.69993e-09, No Iterations 1
BiCGStab:  Solving for By, Initial residual = 0.11108, Final residual = 1.20002e-08, No Iterations 1
CholeskyCG:  Solving for pB, Initial residual = 0.0420792, Final residual = 8.76388e-06, No Iterations 11
magnetic flux divergence error = 1.97361e-12
BiCGStab:  Solving for Bx, Initial residual = 6.31363e-07, Final residual = 6.31363e-07, No Iterations 0
BiCGStab:  Solving for By, Initial residual = 4.37177e-05, Final residual = 4.50103e-12, No Iterations 1
CholeskyCG:  Solving for pB, Initial residual = 0.000126033, Final residual = 4.53045e-06, No Iterations 2
magnetic flux divergence error = 1.04358e-12
BiCGStab:  Solving for Bx, Initial residual = 6.31343e-07, Final residual = 6.31343e-07, No Iterations 0
BiCGStab:  Solving for By, Initial residual = 2.51386e-09, Final residual = 2.51386e-09, No Iterations 0
CholeskyCG:  Solving for pB, Initial residual = 4.53031e-06, Final residual = 4.53031e-06, No Iterations 0
magnetic flux divergence error = 1.04358e-12
Time = 0.00533333

Courant Number mean: 0.000349448 max: 0.00355165 velocity magnitude: 1.06757
BiCGStab:  Solving for Ux, Initial residual = 0.0435216, Final residual = 3.13221e-09, No Iterations 1
BiCGStab:  Solving for Uy, Initial residual = 0.0502648, Final residual = 5.85492e-09, No Iterations 1
CholeskyCG:  Solving for p, Initial residual = 0.00925731, Final residual = 9.23008e-07, No Iterations 47
time step continuity errors : sum local = 2.38446e-11, global = 3.87587e-13, cumulative = 5.52812e-12
CholeskyCG:  Solving for p, Initial residual = 0.000575769, Final residual = 5.1993e-07, No Iterations 45
time step continuity errors : sum local = 1.26021e-11, global = 1.69368e-13, cumulative = 5.69748e-12
CholeskyCG:  Solving for p, Initial residual = 3.17363e-05, Final residual = 7.33096e-07, No Iterations 4
time step continuity errors : sum local = 1.78966e-11, global = -4.1287e-12, cumulative = 1.56878e-12
BiCGStab:  Solving for Bx, Initial residual = 0.0543467, Final residual = 2.63581e-09, No Iterations 1
BiCGStab:  Solving for By, Initial residual = 0.0940349, Final residual = 1.02431e-08, No Iterations 1
CholeskyCG:  Solving for pB, Initial residual = 0.037067, Final residual = 8.04873e-06, No Iterations 9
magnetic flux divergence error = 1.87904e-12
BiCGStab:  Solving for Bx, Initial residual = 5.39256e-07, Final residual = 5.39256e-07, No Iterations 0
BiCGStab:  Solving for By, Initial residual = 3.8393e-05, Final residual = 4.00283e-12, No Iterations 1
CholeskyCG:  Solving for pB, Initial residual = 0.000129823, Final residual = 4.37689e-06, No Iterations 2
magnetic flux divergence error = 1.03543e-12
BiCGStab:  Solving for Bx, Initial residual = 5.39235e-07, Final residual = 5.39235e-07, No Iterations 0
BiCGStab:  Solving for By, Initial residual = 2.50908e-09, Final residual = 2.50908e-09, No Iterations 0
CholeskyCG:  Solving for pB, Initial residual = 4.37676e-06, Final residual = 4.37676e-06, No Iterations 0
magnetic flux divergence error = 1.03543e-12
Time = 0.006

Courant Number mean: 0.000350203 max: 0.00357473 velocity magnitude: 1.07376
BiCGStab:  Solving for Ux, Initial residual = 0.036777, Final residual = 2.40084e-09, No Iterations 1
BiCGStab:  Solving for Uy, Initial residual = 0.0426171, Final residual = 5.01754e-09, No Iterations 1
CholeskyCG:  Solving for p, Initial residual = 0.00790535, Final residual = 7.22019e-07, No Iterations 47
time step continuity errors : sum local = 1.75193e-11, global = 2.77261e-13, cumulative = 1.84604e-12
CholeskyCG:  Solving for p, Initial residual = 0.000473157, Final residual = 8.82758e-07, No Iterations 44
time step continuity errors : sum local = 2.02155e-11, global = 4.17323e-13, cumulative = 2.26336e-12
CholeskyCG:  Solving for p, Initial residual = 2.7102e-05, Final residual = 6.18111e-07, No Iterations 4
time step continuity errors : sum local = 1.42475e-11, global = -3.57621e-12, cumulative = -1.31284e-12
BiCGStab:  Solving for Bx, Initial residual = 0.047788, Final residual = 2.55266e-09, No Iterations 1
BiCGStab:  Solving for By, Initial residual = 0.0809865, Final residual = 8.8856e-09, No Iterations 1
CholeskyCG:  Solving for pB, Initial residual = 0.0307053, Final residual = 6.28256e-06, No Iterations 9
magnetic flux divergence error = 1.50981e-12
BiCGStab:  Solving for Bx, Initial residual = 4.74736e-07, Final residual = 4.74736e-07, No Iterations 0
BiCGStab:  Solving for By, Initial residual = 3.42603e-05, Final residual = 3.61193e-12, No Iterations 1
CholeskyCG:  Solving for pB, Initial residual = 0.000135789, Final residual = 3.89776e-06, No Iterations 2
magnetic flux divergence error = 9.51329e-13
BiCGStab:  Solving for Bx, Initial residual = 4.7472e-07, Final residual = 4.7472e-07, No Iterations 0
BiCGStab:  Solving for By, Initial residual = 2.46527e-09, Final residual = 2.46527e-09, No Iterations 0
CholeskyCG:  Solving for pB, Initial residual = 3.89765e-06, Final residual = 3.89765e-06, No Iterations 0
magnetic flux divergence error = 9.51329e-13
Time = 0.00666667

Courant Number mean: 0.000350904 max: 0.00359658 velocity magnitude: 1.07922
BiCGStab:  Solving for Ux, Initial residual = 0.032116, Final residual = 1.85995e-09, No Iterations 1
BiCGStab:  Solving for Uy, Initial residual = 0.0367676, Final residual = 4.3663e-09, No Iterations 1
CholeskyCG:  Solving for p, Initial residual = 0.00686918, Final residual = 5.67727e-07, No Iterations 47
time step continuity errors : sum local = 1.30172e-11, global = 1.9913e-13, cumulative = -1.11371e-12
CholeskyCG:  Solving for p, Initial residual = 0.00040317, Final residual = 7.05144e-07, No Iterations 44
time step continuity errors : sum local = 1.53399e-11, global = 3.12634e-13, cumulative = -8.0108e-13
CholeskyCG:  Solving for p, Initial residual = 2.31316e-05, Final residual = 8.72702e-07, No Iterations 3
time step continuity errors : sum local = 1.90977e-11, global = -3.05961e-12, cumulative = -3.86069e-12
BiCGStab:  Solving for Bx, Initial residual = 0.0427495, Final residual = 2.39116e-09, No Iterations 1
BiCGStab:  Solving for By, Initial residual = 0.0707206, Final residual = 7.81e-09, No Iterations 1
CholeskyCG:  Solving for pB, Initial residual = 0.0272863, Final residual = 9.93679e-06, No Iterations 8
magnetic flux divergence error = 2.46257e-12
BiCGStab:  Solving for Bx, Initial residual = 4.23868e-07, Final residual = 4.23868e-07, No Iterations 0
BiCGStab:  Solving for By, Initial residual = 3.09296e-05, Final residual = 3.28831e-12, No Iterations 1
CholeskyCG:  Solving for pB, Initial residual = 0.000144321, Final residual = 4.6188e-06, No Iterations 2
magnetic flux divergence error = 1.16198e-12
BiCGStab:  Solving for Bx, Initial residual = 4.23855e-07, Final residual = 4.23855e-07, No Iterations 0
BiCGStab:  Solving for By, Initial residual = 2.40837e-09, Final residual = 2.40837e-09, No Iterations 0
CholeskyCG:  Solving for pB, Initial residual = 4.61867e-06, Final residual = 4.61867e-06, No Iterations 0
magnetic flux divergence error = 1.16198e-12
Time = 0.00733333

Courant Number mean: 0.000351557 max: 0.00361737 velocity magnitude: 1.08523
BiCGStab:  Solving for Ux, Initial residual = 0.0284792, Final residual = 1.48714e-09, No Iterations 1
BiCGStab:  Solving for Uy, Initial residual = 0.0321502, Final residual = 3.84756e-09, No Iterations 1
CholeskyCG:  Solving for p, Initial residual = 0.00605129, Final residual = 4.49681e-07, No Iterations 47
time step continuity errors : sum local = 9.7949e-12, global = 1.43438e-13, cumulative = -3.71725e-12
CholeskyCG:  Solving for p, Initial residual = 0.000349922, Final residual = 5.68745e-07, No Iterations 44
time step continuity errors : sum local = 1.18096e-11, global = 2.36963e-13, cumulative = -3.48029e-12
CholeskyCG:  Solving for p, Initial residual = 2.00032e-05, Final residual = 6.90271e-07, No Iterations 3
time step continuity errors : sum local = 1.44103e-11, global = -2.6602e-12, cumulative = -6.14049e-12
BiCGStab:  Solving for Bx, Initial residual = 0.0387687, Final residual = 2.21506e-09, No Iterations 1
BiCGStab:  Solving for By, Initial residual = 0.0624649, Final residual = 6.94042e-09, No Iterations 1
CholeskyCG:  Solving for pB, Initial residual = 0.026206, Final residual = 7.9801e-06, No Iterations 9
magnetic flux divergence error = 2.02972e-12
BiCGStab:  Solving for Bx, Initial residual = 3.81997e-07, Final residual = 3.81997e-07, No Iterations 0
BiCGStab:  Solving for By, Initial residual = 2.81716e-05, Final residual = 3.03349e-12, No Iterations 1
CholeskyCG:  Solving for pB, Initial residual = 0.000149323, Final residual = 4.50278e-06, No Iterations 2
magnetic flux divergence error = 1.15775e-12
BiCGStab:  Solving for Bx, Initial residual = 3.81982e-07, Final residual = 3.81982e-07, No Iterations 0
BiCGStab:  Solving for By, Initial residual = 2.39418e-09, Final residual = 2.39418e-09, No Iterations 0
CholeskyCG:  Solving for pB, Initial residual = 4.50266e-06, Final residual = 4.50266e-06, No Iterations 0
magnetic flux divergence error = 1.15775e-12
Time = 0.008

Courant Number mean: 0.000352169 max: 0.00363724 velocity magnitude: 1.09117
BiCGStab:  Solving for Ux, Initial residual = 0.0255009, Final residual = 1.20196e-09, No Iterations 1
BiCGStab:  Solving for Uy, Initial residual = 0.0284332, Final residual = 3.42657e-09, No Iterations 1
CholeskyCG:  Solving for p, Initial residual = 0.00543412, Final residual = 8.39373e-07, No Iterations 46
time step continuity errors : sum local = 1.74505e-11, global = -8.64655e-14, cumulative = -6.22696e-12
CholeskyCG:  Solving for p, Initial residual = 0.00030688, Final residual = 9.19859e-07, No Iterations 43
time step continuity errors : sum local = 1.83078e-11, global = -3.08191e-14, cumulative = -6.25778e-12
CholeskyCG:  Solving for p, Initial residual = 1.78538e-05, Final residual = 6.07718e-07, No Iterations 3
time step continuity errors : sum local = 1.21548e-11, global = -2.33435e-12, cumulative = -8.59213e-12
BiCGStab:  Solving for Bx, Initial residual = 0.0355491, Final residual = 2.0456e-09, No Iterations 1
BiCGStab:  Solving for By, Initial residual = 0.0557057, Final residual = 6.2294e-09, No Iterations 1
CholeskyCG:  Solving for pB, Initial residual = 0.0244339, Final residual = 6.67846e-06, No Iterations 9
magnetic flux divergence error = 1.74551e-12
BiCGStab:  Solving for Bx, Initial residual = 3.4766e-07, Final residual = 3.4766e-07, No Iterations 0
BiCGStab:  Solving for By, Initial residual = 2.58776e-05, Final residual = 2.8234e-12, No Iterations 1
CholeskyCG:  Solving for pB, Initial residual = 0.000151053, Final residual = 4.34524e-06, No Iterations 2
magnetic flux divergence error = 1.15416e-12
BiCGStab:  Solving for Bx, Initial residual = 3.47645e-07, Final residual = 3.47645e-07, No Iterations 0
BiCGStab:  Solving for By, Initial residual = 2.33356e-09, Final residual = 2.33356e-09, No Iterations 0
CholeskyCG:  Solving for pB, Initial residual = 4.34506e-06, Final residual = 4.34506e-06, No Iterations 0
magnetic flux divergence error = 1.15416e-12
Time = 0.00866667

Courant Number mean: 0.000352745 max: 0.0036563 velocity magnitude: 1.09689
BiCGStab:  Solving for Ux, Initial residual = 0.0230353, Final residual = 9.82841e-10, No Iterations 1
BiCGStab:  Solving for Uy, Initial residual = 0.025393, Final residual = 3.07922e-09, No Iterations 1
CholeskyCG:  Solving for p, Initial residual = 0.00505501, Final residual = 7.01392e-07, No Iterations 46
time step continuity errors : sum local = 1.3976e-11, global = -8.26883e-14, cumulative = -8.67481e-12
CholeskyCG:  Solving for p, Initial residual = 0.000271189, Final residual = 7.745e-07, No Iterations 43
time step continuity errors : sum local = 1.48307e-11, global = -3.91632e-14, cumulative = -8.71398e-12
CholeskyCG:  Solving for p, Initial residual = 1.57827e-05, Final residual = 9.96327e-07, No Iterations 2
time step continuity errors : sum local = 1.91637e-11, global = -1.99666e-12, cumulative = -1.07106e-11
BiCGStab:  Solving for Bx, Initial residual = 0.0328907, Final residual = 1.88655e-09, No Iterations 1
BiCGStab:  Solving for By, Initial residual = 0.0500889, Final residual = 5.65301e-09, No Iterations 1
CholeskyCG:  Solving for pB, Initial residual = 0.0226232, Final residual = 6.12911e-06, No Iterations 9
magnetic flux divergence error = 1.65483e-12
BiCGStab:  Solving for Bx, Initial residual = 3.18938e-07, Final residual = 3.18938e-07, No Iterations 0
BiCGStab:  Solving for By, Initial residual = 2.39333e-05, Final residual = 2.64272e-12, No Iterations 1
CholeskyCG:  Solving for pB, Initial residual = 0.000151955, Final residual = 4.21772e-06, No Iterations 2