/*--------------------------------*- C++ -*----------------------------------*\
| =========                 |                                                 |
| \\      /  F ield         | foam-extend: Open Source CFD                    |
|  \\    /   O peration     | Version:     5.0                                |
|   \\  /    A nd           | Web:         http://www.foam-extend.org         |
|    \\/     M anipulation  | For copyright notice see file Copyright         |
\*---------------------------------------------------------------------------*/
FoamFile
{
    version     2.0;
    format      ascii;
    class       dictionary;
    object      fvSchemes;
}
// * * * * * * * * * * * * * * * * * * * * * * * * * * * * * * * * * * * * * //

ddtSchemes
{
    default Euler;
}

gradSchemes
{
    default         Gauss linear;
    grad(p)         Gauss linear;
    grad((DBU*magSqr(B))) Gauss linear;
}

divSchemes
{
    default         none;
    div(phi,U)      Gauss linear;
    div(phiB,U)     Gauss linear;
    div(phi,B)      Gauss linear;
    div(phiB,((2*DBU)*B)) Gauss linear;
}

laplacianSchemes
{
    default         none;
    laplacian(nu,U) Gauss linear corrected;
    laplacian((1|A(U)),p) Gauss linear corrected;
    laplacian(DB,B) Gauss linear corrected;
    laplacian((1|A(B)),pB) Gauss linear corrected;
}

interpolationSchemes
{
    default         linear;
    interpolate(HbyA) linear;
    interpolate(B)  linear;
}

snGradSchemes
{
    default         corrected;
}

// ************************************************************************* //
/*--------------------------------*- C++ -*----------------------------------*\
| =========                 |                                                 |
| \\      /  F ield         | foam-extend: Open Source CFD                    |
|  \\    /   O peration     | Version:     5.0                                |
|   \\  /    A nd           | Web:         http://www.foam-extend.org         |
|    \\/     M anipulation  | For copyright notice see file Copyright         |
\*---------------------------------------------------------------------------*/
FoamFile
{
    version     2.0;
    format      ascii;
    class       dictionary;
    object      fvSolution;
}
// * * * * * * * * * * * * * * * * * * * * * * * * * * * * * * * * * * * * * //

solvers
{
    p
    {
        solver           CG;
        preconditioner   Cholesky;
        tolerance        1e-06;
        relTol           0;
    }
    U
    {
        solver           BiCGStab;
        preconditioner   DILU;
        tolerance        1e-05;
        relTol           0;
    }
    B
    {
        solver           BiCGStab;
        preconditioner   DILU;
        tolerance        1e-05;
        relTol           0;
    }
    pB
    {
        solver           CG;
        preconditioner   Cholesky;
        tolerance        1e-05;
        relTol           0;
    }
}

PISO
{
    nCorrectors     3;
    nNonOrthogonalCorrectors 0;
}

BPISO
{
    nCorrectors     3;
}

// ************************************************************************* //
/*---------------------------------------------------------------------------*\
| =========                 |                                                 |
| \\      /  F ield         | foam-extend: Open Source CFD                    |
|  \\    /   O peration     | Version:     5.0                                |
|   \\  /    A nd           | Web:         http://www.foam-extend.org         |
|    \\/     M anipulation  | For copyright notice see file Copyright         |
\*---------------------------------------------------------------------------*/
Build  : 5.0-73c2a3d539c2
Exec   : mhdFoam
Date   : Jul 10 2023
Time   : 12:57:56
Host   : "ojm40-OMEN"
PID    : 334500
CtrlDict : "/home/ojm40/foam/ojm40-5.0/work/liquidMetalBattery/run/hartmannMHD/system/controlDict"
Case   : /home/ojm40/foam/ojm40-5.0/work/liquidMetalBattery/run/hartmannMHD
nProcs : 1
sigFpe : Enabling floating point exception trapping (FOAM_SIGFPE).
allowSystemOperations : Disallowing user-supplied system call operations

// * * * * * * * * * * * * * * * * * * * * * * * * * * * * * * * * * * * * * //
Create time

Create mesh for time = 0


PISO: Operating solver in PISO mode

Reading transportProperties

Reading field p

Reading field U

Reading/calculating face flux field phi

Reading field pB

Reading field B

Calculating face flux


Starting time loop
Time = 0.00133333

Courant Number mean: 0 max: 0.00333333 velocity magnitude: 1
BiCGStab:  Solving for Ux, Initial residual = 1, Final residual = 6.96084e-09, No Iterations 1
BiCGStab:  Solving for Uy, Initial residual = 0, Final residual = 0, No Iterations 0
CholeskyCG:  Solving for p, Initial residual = 1, Final residual = 8.32537e-07, No Iterations 29
time step continuity errors : sum local = 5.55025e-11, global = -6.44597e-13, cumulative = -6.44597e-13
CholeskyCG:  Solving for p, Initial residual = 0.00118447, Final residual = 8.49044e-07, No Iterations 24
time step continuity errors : sum local = 2.94644e-09, global = -2.55086e-11, cumulative = -2.61532e-11
CholeskyCG:  Solving for p, Initial residual = 2.1672e-05, Final residual = 3.47999e-07, No Iterations 22
time step continuity errors : sum local = 1.13751e-09, global = 3.50517e-11, cumulative = 8.8985e-12
BiCGStab:  Solving for Bx, Initial residual = 1, Final residual = 7.121e-09, No Iterations 1
BiCGStab:  Solving for By, Initial residual = 1, Final residual = 8.59466e-09, No Iterations 1
CholeskyCG:  Solving for pB, Initial residual = 1, Final residual = 4.27822e-06, No Iterations 25
magnetic flux divergence error = 3.64938e-12
BiCGStab:  Solving for Bx, Initial residual = 1.09713e-05, Final residual = 7.45387e-14, No Iterations 1
BiCGStab:  Solving for By, Initial residual = 0.000228099, Final residual = 1.79254e-12, No Iterations 1
CholeskyCG:  Solving for pB, Initial residual = 0.000532339, Final residual = 6.10629e-06, No Iterations 3
magnetic flux divergence error = 1.04214e-11
BiCGStab:  Solving for Bx, Initial residual = 3.34955e-09, Final residual = 3.34955e-09, No Iterations 0
BiCGStab:  Solving for By, Initial residual = 8.97175e-08, Final residual = 8.97175e-08, No Iterations 0
CholeskyCG:  Solving for pB, Initial residual = 6.10403e-06, Final residual = 6.10403e-06, No Iterations 0
magnetic flux divergence error = 1.04214e-11
Time = 0.00266667

Courant Number mean: 0.000352336 max: 0.00337556 velocity magnitude: 1.01267
BiCGStab:  Solving for Ux, Initial residual = 0.951332, Final residual = 1.77836e-09, No Iterations 1
BiCGStab:  Solving for Uy, Initial residual = 0.336417, Final residual = 2.9156e-09, No Iterations 1
CholeskyCG:  Solving for p, Initial residual = 0.0205316, Final residual = 2.67167e-07, No Iterations 27
time step continuity errors : sum local = 8.57413e-10, global = 7.98722e-12, cumulative = 1.68857e-11
CholeskyCG:  Solving for p, Initial residual = 0.0227434, Final residual = 9.4726e-07, No Iterations 26
time step continuity errors : sum local = 1.67199e-10, global = 1.58449e-12, cumulative = 1.84702e-11
CholeskyCG:  Solving for p, Initial residual = 0.00103982, Final residual = 6.47894e-07, No Iterations 24
time step continuity errors : sum local = 3.70263e-11, global = -6.75474e-14, cumulative = 1.84027e-11
BiCGStab:  Solving for Bx, Initial residual = 0.32341, Final residual = 2.30607e-09, No Iterations 1
BiCGStab:  Solving for By, Initial residual = 0.484044, Final residual = 4.20329e-09, No Iterations 1
CholeskyCG:  Solving for pB, Initial residual = 0.170961, Final residual = 8.26403e-06, No Iterations 18
magnetic flux divergence error = 1.59638e-11
BiCGStab:  Solving for Bx, Initial residual = 4.92617e-06, Final residual = 4.92617e-06, No Iterations 0
BiCGStab:  Solving for By, Initial residual = 0.000147122, Final residual = 1.18183e-12, No Iterations 1
CholeskyCG:  Solving for pB, Initial residual = 4.2167e-05, Final residual = 4.04309e-06, No Iterations 1
magnetic flux divergence error = 8.71756e-12
BiCGStab:  Solving for Bx, Initial residual = 4.92619e-06, Final residual = 4.92619e-06, No Iterations 0
BiCGStab:  Solving for By, Initial residual = 1.28282e-09, Final residual = 1.28282e-09, No Iterations 0
CholeskyCG:  Solving for pB, Initial residual = 4.04307e-06, Final residual = 4.04307e-06, No Iterations 0
magnetic flux divergence error = 8.71756e-12
Time = 0.004

Courant Number mean: 0.000353614 max: 0.00341624 velocity magnitude: 1.02487
BiCGStab:  Solving for Ux, Initial residual = 0.113942, Final residual = 6.10466e-10, No Iterations 1
BiCGStab:  Solving for Uy, Initial residual = 0.206615, Final residual = 1.83355e-09, No Iterations 1
CholeskyCG:  Solving for p, Initial residual = 0.0418942, Final residual = 3.34209e-07, No Iterations 27
time step continuity errors : sum local = 1.86124e-11, global = 6.60909e-14, cumulative = 1.84688e-11
CholeskyCG:  Solving for p, Initial residual = 0.0013137, Final residual = 8.41268e-07, No Iterations 24
time step continuity errors : sum local = 4.40336e-11, global = -1.07286e-13, cumulative = 1.83615e-11
CholeskyCG:  Solving for p, Initial residual = 3.81139e-05, Final residual = 9.09974e-07, No Iterations 4
time step continuity errors : sum local = 4.77342e-11, global = -3.57144e-12, cumulative = 1.479e-11
BiCGStab:  Solving for Bx, Initial residual = 0.189871, Final residual = 1.34173e-09, No Iterations 1
BiCGStab:  Solving for By, Initial residual = 0.3172, Final residual = 2.79123e-09, No Iterations 1
CholeskyCG:  Solving for pB, Initial residual = 0.0597482, Final residual = 8.7381e-06, No Iterations 10
magnetic flux divergence error = 1.93403e-11
BiCGStab:  Solving for Bx, Initial residual = 3.11654e-06, Final residual = 3.11654e-06, No Iterations 0
BiCGStab:  Solving for By, Initial residual = 0.000104238, Final residual = 8.55752e-13, No Iterations 1
CholeskyCG:  Solving for pB, Initial residual = 5.28849e-05, Final residual = 5.56747e-06, No Iterations 1
magnetic flux divergence error = 1.2641e-11
BiCGStab:  Solving for Bx, Initial residual = 3.11655e-06, Final residual = 3.11655e-06, No Iterations 0
BiCGStab:  Solving for By, Initial residual = 1.33658e-09, Final residual = 1.33658e-09, No Iterations 0
CholeskyCG:  Solving for pB, Initial residual = 5.56744e-06, Final residual = 5.56744e-06, No Iterations 0
magnetic flux divergence error = 1.2641e-11
Time = 0.00533333

Courant Number mean: 0.000354728 max: 0.00345564 velocity magnitude: 1.03669
BiCGStab:  Solving for Ux, Initial residual = 0.0904633, Final residual = 3.6788e-10, No Iterations 1
BiCGStab:  Solving for Uy, Initial residual = 0.151438, Final residual = 1.37617e-09, No Iterations 1
CholeskyCG:  Solving for p, Initial residual = 0.0315529, Final residual = 9.92768e-07, No Iterations 26
time step continuity errors : sum local = 5.09568e-11, global = -1.07231e-12, cumulative = 1.37177e-11
CholeskyCG:  Solving for p, Initial residual = 0.000934996, Final residual = 5.90288e-07, No Iterations 24
time step continuity errors : sum local = 2.9088e-11, global = -5.97441e-14, cumulative = 1.3658e-11
CholeskyCG:  Solving for p, Initial residual = 2.63912e-05, Final residual = 6.69599e-07, No Iterations 4
time step continuity errors : sum local = 3.30479e-11, global = -2.41509e-12, cumulative = 1.12429e-11
BiCGStab:  Solving for Bx, Initial residual = 0.133126, Final residual = 9.23039e-10, No Iterations 1
BiCGStab:  Solving for By, Initial residual = 0.235537, Final residual = 2.10809e-09, No Iterations 1
CholeskyCG:  Solving for pB, Initial residual = 0.046716, Final residual = 9.22381e-06, No Iterations 10
magnetic flux divergence error = 2.11612e-11
BiCGStab:  Solving for Bx, Initial residual = 2.25846e-06, Final residual = 2.25846e-06, No Iterations 0
BiCGStab:  Solving for By, Initial residual = 7.84856e-05, Final residual = 6.55173e-13, No Iterations 1
CholeskyCG:  Solving for pB, Initial residual = 5.98032e-05, Final residual = 6.17497e-06, No Iterations 1
magnetic flux divergence error = 1.43129e-11
BiCGStab:  Solving for Bx, Initial residual = 2.25847e-06, Final residual = 2.25847e-06, No Iterations 0
BiCGStab:  Solving for By, Initial residual = 1.34097e-09, Final residual = 1.34097e-09, No Iterations 0
CholeskyCG:  Solving for pB, Initial residual = 6.17493e-06, Final residual = 6.17493e-06, No Iterations 0
magnetic flux divergence error = 1.43129e-11
Time = 0.00666667

Courant Number mean: 0.000355695 max: 0.00349412 velocity magnitude: 1.04824
BiCGStab:  Solving for Ux, Initial residual = 0.0738149, Final residual = 3.96845e-10, No Iterations 1
BiCGStab:  Solving for Uy, Initial residual = 0.121078, Final residual = 1.12179e-09, No Iterations 1
CholeskyCG:  Solving for p, Initial residual = 0.0256685, Final residual = 7.2172e-07, No Iterations 26
time step continuity errors : sum local = 3.51782e-11, global = -7.28307e-13, cumulative = 1.05146e-11
CholeskyCG:  Solving for p, Initial residual = 0.000693246, Final residual = 4.22476e-07, No Iterations 24
time step continuity errors : sum local = 2.00989e-11, global = -3.9776e-14, cumulative = 1.04748e-11
CholeskyCG:  Solving for p, Initial residual = 1.90352e-05, Final residual = 9.42291e-07, No Iterations 3
time step continuity errors : sum local = 4.48751e-11, global = -1.42034e-12, cumulative = 9.05447e-12
BiCGStab:  Solving for Bx, Initial residual = 0.101892, Final residual = 6.87652e-10, No Iterations 1
BiCGStab:  Solving for By, Initial residual = 0.186602, Final residual = 1.69878e-09, No Iterations 1
CholeskyCG:  Solving for pB, Initial residual = 0.0582704, Final residual = 8.28239e-06, No Iterations 12
magnetic flux divergence error = 1.89938e-11
BiCGStab:  Solving for Bx, Initial residual = 1.74709e-06, Final residual = 1.74709e-06, No Iterations 0
BiCGStab:  Solving for By, Initial residual = 6.05803e-05, Final residual = 5.14112e-13, No Iterations 1
CholeskyCG:  Solving for pB, Initial residual = 6.362e-05, Final residual = 6.23645e-06, No Iterations 1
magnetic flux divergence error = 1.41484e-11
BiCGStab:  Solving for Bx, Initial residual = 1.74709e-06, Final residual = 1.74709e-06, No Iterations 0
BiCGStab:  Solving for By, Initial residual = 1.34177e-09, Final residual = 1.34177e-09, No Iterations 0
CholeskyCG:  Solving for pB, Initial residual = 6.2364e-06, Final residual = 6.2364e-06, No Iterations 0
magnetic flux divergence error = 1.41484e-11
Time = 0.008

Courant Number mean: 0.000356529 max: 0.00353188 velocity magnitude: 1.05956
BiCGStab:  Solving for Ux, Initial residual = 0.0596905, Final residual = 4.28195e-10, No Iterations 1
BiCGStab:  Solving for Uy, Initial residual = 0.103116, Final residual = 9.59911e-10, No Iterations 1
CholeskyCG:  Solving for p, Initial residual = 0.0222841, Final residual = 5.29217e-07, No Iterations 26
time step continuity errors : sum local = 2.50606e-11, global = -5.16809e-13, cumulative = 8.53766e-12
CholeskyCG:  Solving for p, Initial residual = 0.000530268, Final residual = 3.06279e-07, No Iterations 24
time step continuity errors : sum local = 1.43447e-11, global = -3.24682e-14, cumulative = 8.5052e-12
CholeskyCG:  Solving for p, Initial residual = 1.42209e-05, Final residual = 6.92138e-07, No Iterations 3
time step continuity errors : sum local = 3.24351e-11, global = -5.63379e-13, cumulative = 7.94182e-12
BiCGStab:  Solving for Bx, Initial residual = 0.0822284, Final residual = 5.36608e-10, No Iterations 1
BiCGStab:  Solving for By, Initial residual = 0.154133, Final residual = 1.434e-09, No Iterations 1
CholeskyCG:  Solving for pB, Initial residual = 0.0443298, Final residual = 8.52427e-06, No Iterations 8
magnetic flux divergence error = 1.96398e-11
BiCGStab:  Solving for Bx, Initial residual = 1.41674e-06, Final residual = 1.41674e-06, No Iterations 0
BiCGStab:  Solving for By, Initial residual = 4.81153e-05, Final residual = 4.14903e-13, No Iterations 1
CholeskyCG:  Solving for pB, Initial residual = 6.20347e-05, Final residual = 6.63411e-06, No Iterations 1
magnetic flux divergence error = 1.55193e-11
BiCGStab:  Solving for Bx, Initial residual = 1.41674e-06, Final residual = 1.41674e-06, No Iterations 0
BiCGStab:  Solving for By, Initial residual = 1.26843e-09, Final residual = 1.26843e-09, No Iterations 0
CholeskyCG:  Solving for pB, Initial residual = 6.63404e-06, Final residual = 6.63404e-06, No Iterations 0
magnetic flux divergence error = 1.55193e-11
Time = 0.00933333

Courant Number mean: 0.000357241 max: 0.00356901 velocity magnitude: 1.0707
BiCGStab:  Solving for Ux, Initial residual = 0.0514193, Final residual = 4.32298e-10, No Iterations 1
BiCGStab:  Solving for Uy, Initial residual = 0.090158, Final residual = 8.36317e-10, No Iterations 1
CholeskyCG:  Solving for p, Initial residual = 0.0207407, Final residual = 3.9193e-07, No Iterations 26
time step continuity errors : sum local = 1.83539e-11, global = -3.80952e-13, cumulative = 7.56086e-12
CholeskyCG:  Solving for p, Initial residual = 0.000414278, Final residual = 4.40953e-07, No Iterations 19
time step continuity errors : sum local = 2.06379e-11, global = 4.59095e-12, cumulative = 1.21518e-11
CholeskyCG:  Solving for p, Initial residual = 1.09499e-05, Final residual = 5.13466e-07, No Iterations 3
time step continuity errors : sum local = 2.40364e-11, global = 4.00563e-12, cumulative = 1.61574e-11
BiCGStab:  Solving for Bx, Initial residual = 0.0687721, Final residual = 4.31325e-10, No Iterations 1
BiCGStab:  Solving for By, Initial residual = 0.130899, Final residual = 1.24284e-09, No Iterations 1
CholeskyCG:  Solving for pB, Initial residual = 0.0425799, Final residual = 9.74229e-06, No Iterations 11
magnetic flux divergence error = 2.30314e-11
BiCGStab:  Solving for Bx, Initial residual = 1.18033e-06, Final residual = 1.18033e-06, No Iterations 0
BiCGStab:  Solving for By, Initial residual = 3.87076e-05, Final residual = 3.39599e-13, No Iterations 1
CholeskyCG:  Solving for pB, Initial residual = 6.14715e-05, Final residual = 7.55113e-06, No Iterations 1
magnetic flux divergence error = 1.80383e-11
BiCGStab:  Solving for Bx, Initial residual = 1.18033e-06, Final residual = 1.18033e-06, No Iterations 0
BiCGStab:  Solving for By, Initial residual = 1.18015e-09, Final residual = 1.18015e-09, No Iterations 0
CholeskyCG:  Solving for pB, Initial residual = 7.55105e-06, Final residual = 7.55105e-06, No Iterations 0
magnetic flux divergence error = 1.80383e-11
Time = 0.0106667

Courant Number mean: 0.00035784 max: 0.00360551 velocity magnitude: 1.08165
BiCGStab:  Solving for Ux, Initial residual = 0.0511388, Final residual = 4.11765e-10, No Iterations 1
BiCGStab:  Solving for Uy, Initial residual = 0.0799614, Final residual = 7.30159e-10, No Iterations 1
CholeskyCG:  Solving for p, Initial residual = 0.0200164, Final residual = 2.91777e-07, No Iterations 26
time step continuity errors : sum local = 1.36989e-11, global = -2.83199e-13, cumulative = 1.58742e-11
CholeskyCG:  Solving for p, Initial residual = 0.000331951, Final residual = 7.92319e-07, No Iterations 23
time step continuity errors : sum local = 3.74824e-11, global = -8.75929e-13, cumulative = 1.49983e-11
CholeskyCG:  Solving for p, Initial residual = 8.68871e-06, Final residual = 7.86749e-07, No Iterations 2
time step continuity errors : sum local = 3.72145e-11, global = 7.16768e-13, cumulative = 1.57151e-11
BiCGStab:  Solving for Bx, Initial residual = 0.0590215, Final residual = 3.54051e-10, No Iterations 1
BiCGStab:  Solving for By, Initial residual = 0.113198, Final residual = 1.09262e-09, No Iterations 1
CholeskyCG:  Solving for pB, Initial residual = 0.0376194, Final residual = 6.59565e-06, No Iterations 7
magnetic flux divergence error = 1.61182e-11
BiCGStab:  Solving for Bx, Initial residual = 1.00309e-06, Final residual = 1.00309e-06, No Iterations 0
BiCGStab:  Solving for By, Initial residual = 3.16105e-05, Final residual = 2.83727e-13, No Iterations 1
CholeskyCG:  Solving for pB, Initial residual = 5.71664e-05, Final residual = 7.16275e-06, No Iterations 1
magnetic flux divergence error = 1.78977e-11
BiCGStab:  Solving for Bx, Initial residual = 1.0031e-06, Final residual = 1.0031e-06, No Iterations 0
BiCGStab:  Solving for By, Initial residual = 1.05497e-09, Final residual = 1.05497e-09, No Iterations 0
CholeskyCG:  Solving for pB, Initial residual = 7.16267e-06, Final residual = 7.16267e-06, No Iterations 0
magnetic flux divergence error = 1.78977e-11
Time = 0.012

Courant Number mean: 0.000358336 max: 0.00364129 velocity magnitude: 1.09239
BiCGStab:  Solving for Ux, Initial residual = 0.053052, Final residual = 3.77705e-10, No Iterations 1
BiCGStab:  Solving for Uy, Initial residual = 0.0736254, Final residual = 6.45782e-10, No Iterations 1
CholeskyCG:  Solving for p, Initial residual = 0.0191835, Final residual = 7.42452e-07, No Iterations 25
time step continuity errors : sum local = 3.53167e-11, global = -5.39811e-13, cumulative = 1.51753e-11
CholeskyCG:  Solving for p, Initial residual = 0.000272112, Final residual = 5.82905e-07, No Iterations 23
time step continuity errors : sum local = 2.81145e-11, global = -6.72325e-13, cumulative = 1.45029e-11
CholeskyCG:  Solving for p, Initial residual = 6.94817e-06, Final residual = 5.69947e-07, No Iterations 2
time step continuity errors : sum local = 2.74796e-11, global = 1.25272e-12, cumulative = 1.57557e-11
BiCGStab:  Solving for Bx, Initial residual = 0.0516522, Final residual = 2.95569e-10, No Iterations 1
BiCGStab:  Solving for By, Initial residual = 0.0993101, Final residual = 9.70873e-10, No Iterations 1
CholeskyCG:  Solving for pB, Initial residual = 0.0363786, Final residual = 9.28213e-06, No Iterations 7
magnetic flux divergence error = 2.37729e-11
BiCGStab:  Solving for Bx, Initial residual = 8.67005e-07, Final residual = 8.67005e-07, No Iterations 0
BiCGStab:  Solving for By, Initial residual = 2.64154e-05, Final residual = 2.42129e-13, No Iterations 1
CholeskyCG:  Solving for pB, Initial residual = 5.54301e-05, Final residual = 7.99832e-06, No Iterations 1
magnetic flux divergence error = 2.09842e-11
BiCGStab:  Solving for Bx, Initial residual = 8.67016e-07, Final residual = 8.67016e-07, No Iterations 0
BiCGStab:  Solving for By, Initial residual = 9.65545e-10, Final residual = 9.65545e-10, No Iterations 0
CholeskyCG:  Solving for pB, Initial residual = 7.99823e-06, Final residual = 7.99823e-06, No Iterations 0
magnetic flux divergence error = 2.09842e-11
Time = 0.0133333

Courant Number mean: 0.000358734 max: 0.00367616 velocity magnitude: 1.10285
BiCGStab:  Solving for Ux, Initial residual = 0.0538675, Final residual = 3.42234e-10, No Iterations 1
BiCGStab:  Solving for Uy, Initial residual = 0.0675746, Final residual = 5.67961e-10, No Iterations 1
CholeskyCG:  Solving for p, Initial residual = 0.0184257, Final residual = 5.48518e-07, No Iterations 25
time step continuity errors : sum local = 2.66509e-11, global = -3.40442e-13, cumulative = 1.54152e-11
CholeskyCG:  Solving for p, Initial residual = 0.000228033, Final residual = 4.32983e-07, No Iterations 23
time step continuity errors : sum local = 2.14349e-11, global = -5.34185e-13, cumulative = 1.4881e-11
CholeskyCG:  Solving for p, Initial residual = 5.66087e-06, Final residual = 4.06365e-07, No Iterations 2
time step continuity errors : sum local = 2.01065e-11, global = 1.6828e-12, cumulative = 1.65638e-11
BiCGStab:  Solving for Bx, Initial residual = 0.0458965, Final residual = 2.50225e-10, No Iterations 1
BiCGStab:  Solving for By, Initial residual = 0.0880767, Final residual = 8.74483e-10, No Iterations 1
CholeskyCG:  Solving for pB, Initial residual = 0.0329945, Final residual = 8.9029e-06, No Iterations 9
magnetic flux divergence error = 2.40147e-11
BiCGStab:  Solving for Bx, Initial residual = 7.60489e-07, Final residual = 7.60489e-07, No Iterations 0
BiCGStab:  Solving for By, Initial residual = 2.25349e-05, Final residual = 2.13855e-13, No Iterations 1
CholeskyCG:  Solving for pB, Initial residual = 5.20094e-05, Final residual = 7.39801e-06, No Iterations 1
magnetic flux divergence error = 2.05016e-11
BiCGStab:  Solving for Bx, Initial residual = 7.60498e-07, Final residual = 7.60498e-07, No Iterations 0
BiCGStab:  Solving for By, Initial residual = 9.86637e-10, Final residual = 9.86637e-10, No Iterations 0
CholeskyCG:  Solving for pB, Initial residual = 7.39796e-06, Final residual = 7.39796e-06, No Iterations 0
magnetic flux divergence error = 2.05016e-11
Time = 0.0146667

Courant Number mean: 0.00035904 max: 0.0037099 velocity magnitude: 1.11297
BiCGStab:  Solving for Ux, Initial residual = 0.0539206, Final residual = 3.16958e-10, No Iterations 1
BiCGStab:  Solving for Uy, Initial residual = 0.0619858, Final residual = 4.989e-10, No Iterations 1
CholeskyCG:  Solving for p, Initial residual = 0.018678, Final residual = 3.96319e-07, No Iterations 25
time step continuity errors : sum local = 1.97926e-11, global = -1.48037e-13, cumulative = 1.64158e-11
CholeskyCG:  Solving for p, Initial residual = 0.000203164, Final residual = 3.32454e-07, No Iterations 23
time step continuity errors : sum local = 1.69778e-11, global = -4.44755e-13, cumulative = 1.59711e-11
CholeskyCG:  Solving for p, Initial residual = 4.67525e-06, Final residual = 2.89966e-07, No Iterations 2
time step continuity errors : sum local = 1.47981e-11, global = 2.0332e-12, cumulative = 1.80043e-11
BiCGStab:  Solving for Bx, Initial residual = 0.0412791, Final residual = 2.149e-10, No Iterations 1
BiCGStab:  Solving for By, Initial residual = 0.0790077, Final residual = 7.95416e-10, No Iterations 1
CholeskyCG:  Solving for pB, Initial residual = 0.0315774, Final residual = 5.50495e-06, No Iterations 6
magnetic flux divergence error = 1.5674e-11
BiCGStab:  Solving for Bx, Initial residual = 6.76402e-07, Final residual = 6.76402e-07, No Iterations 0
BiCGStab:  Solving for By, Initial residual = 1.9528e-05, Final residual = 1.9173e-13, No Iterations 1
CholeskyCG:  Solving for pB, Initial residual = 4.9303e-05, Final residual = 6.57073e-06, No Iterations 1
magnetic flux divergence error = 1.92083e-11
BiCGStab:  Solving for Bx, Initial residual = 6.76412e-07, Final residual = 6.76412e-07, No Iterations 0
BiCGStab:  Solving for By, Initial residual = 9.38323e-10, Final residual = 9.38323e-10, No Iterations 0
CholeskyCG:  Solving for pB, Initial residual = 6.57069e-06, Final residual = 6.57069e-06, No Iterations 0
magnetic flux divergence error = 1.92083e-11
Time = 0.016

Courant Number mean: 0.00035926 max: 0.00374221 velocity magnitude: 1.12266
BiCGStab:  Solving for Ux, Initial residual = 0.0533405, Final residual = 2.94502e-10, No Iterations 1
BiCGStab:  Solving for Uy, Initial residual = 0.0577884, Final residual = 4.45767e-10, No Iterations 1
CholeskyCG:  Solving for p, Initial residual = 0.0180771, Final residual = 2.68901e-07, No Iterations 25
time step continuity errors : sum local = 1.38623e-11, global = -4.92708e-14, cumulative = 1.7955e-11
CholeskyCG:  Solving for p, Initial residual = 0.00017186, Final residual = 2.36328e-07, No Iterations 23
time step continuity errors : sum local = 1.24854e-11, global = -3.32534e-13, cumulative = 1.76224e-11
CholeskyCG:  Solving for p, Initial residual = 3.9106e-06, Final residual = 2.13558e-07, No Iterations 2
time step continuity errors : sum local = 1.12737e-11, global = 2.32716e-12, cumulative = 1.99496e-11
BiCGStab:  Solving for Bx, Initial residual = 0.0374895, Final residual = 1.87133e-10, No Iterations 1
BiCGStab:  Solving for By, Initial residual = 0.0718781, Final residual = 7.30868e-10, No Iterations 1
CholeskyCG:  Solving for pB, Initial residual = 0.0301381, Final residual = 9.80956e-06, No Iterations 5
magnetic flux divergence error = 2.94541e-11
BiCGStab:  Solving for Bx, Initial residual = 6.0774e-07, Final residual = 6.0774e-07, No Iterations 0
BiCGStab:  Solving for By, Initial residual = 1.75134e-05, Final residual = 1.7362e-13, No Iterations 1
CholeskyCG:  Solving for pB, Initial residual = 4.86523e-05, Final residual = 7.05973e-06, No Iterations 1
magnetic flux divergence error = 2.17572e-11
BiCGStab:  Solving for Bx, Initial residual = 6.07738e-07, Final residual = 6.07738e-07, No Iterations 0
BiCGStab:  Solving for By, Initial residual = 9.09681e-10, Final residual = 9.09681e-10, No Iterations 0
CholeskyCG:  Solving for pB, Initial residual = 7.05969e-06, Final residual = 7.05969e-06, No Iterations 0
magnetic flux divergence error = 2.17572e-11
Time = 0.0173333

Courant Number mean: 0.000359448 max: 0.00377277 velocity magnitude: 1.13183
BiCGStab:  Solving for Ux, Initial residual = 0.0523057, Final residual = 2.77942e-10, No Iterations 1
BiCGStab:  Solving for Uy, Initial residual = 0.0548213, Final residual = 4.099e-10, No Iterations 1
CholeskyCG:  Solving for p, Initial residual = 0.0181367, Final residual = 8.66215e-07, No Iterations 24
time step continuity errors : sum local = 4.62235e-11, global = 5.34727e-13, cumulative = 2.04843e-11
CholeskyCG:  Solving for p, Initial residual = 0.000178711, Final residual = 9.66279e-07, No Iterations 22
time step continuity errors : sum local = 5.29234e-11, global = -1.87233e-12, cumulative = 1.8612e-11
CholeskyCG:  Solving for p, Initial residual = 3.53521e-06, Final residual = 9.96785e-07, No Iterations 1
time step continuity errors : sum local = 5.45442e-11, global = 1.63913e-12, cumulative = 2.02511e-11
BiCGStab:  Solving for Bx, Initial residual = 0.0343172, Final residual = 1.65312e-10, No Iterations 1
BiCGStab:  Solving for By, Initial residual = 0.0673252, Final residual = 6.83835e-10, No Iterations 1
CholeskyCG:  Solving for pB, Initial residual = 0.0292285, Final residual = 8.39024e-06, No Iterations 5
magnetic flux divergence error = 2.65533e-11
BiCGStab:  Solving for Bx, Initial residual = 5.50726e-07, Final residual = 5.50726e-07, No Iterations 0
BiCGStab:  Solving for By, Initial residual = 1.59314e-05, Final residual = 1.58577e-13, No Iterations 1
CholeskyCG:  Solving for pB, Initial residual = 4.73553e-05, Final residual = 6.81115e-06, No Iterations 1