/*--------------------------------*- C++ -*----------------------------------*\
| =========                 |                                                 |
| \\      /  F ield         | foam-extend: Open Source CFD                    |
|  \\    /   O peration     | Version:     5.0                                |
|   \\  /    A nd           | Web:         http://www.foam-extend.org         |
|    \\/     M anipulation  | For copyright notice see file Copyright         |
\*---------------------------------------------------------------------------*/
FoamFile
{
    version     2.0;
    format      ascii;
    class       dictionary;
    object      fvSchemes;
}
// * * * * * * * * * * * * * * * * * * * * * * * * * * * * * * * * * * * * * //

ddtSchemes
{
    default Euler;
}

gradSchemes
{
    default         Gauss linear;
    grad(p)         Gauss linear;
    grad((DBU*magSqr(B))) Gauss linear;
}

divSchemes
{
    default         none;
    div(phi,U)      Gauss linear;
    div(phiB,U)     Gauss linear;
    div(phi,B)      Gauss linear;
    div(phiB,((2*DBU)*B)) Gauss linear;
}

laplacianSchemes
{
    default         none;
    laplacian(nu,U) Gauss linear corrected;
    laplacian((1|A(U)),p) Gauss linear corrected;
    laplacian(DB,B) Gauss linear corrected;
    laplacian((1|A(B)),pB) Gauss linear corrected;
}

interpolationSchemes
{
    default         linear;
    interpolate(HbyA) linear;
    interpolate(B)  linear;
}

snGradSchemes
{
    default         corrected;
}

// ************************************************************************* //
/*--------------------------------*- C++ -*----------------------------------*\
| =========                 |                                                 |
| \\      /  F ield         | foam-extend: Open Source CFD                    |
|  \\    /   O peration     | Version:     5.0                                |
|   \\  /    A nd           | Web:         http://www.foam-extend.org         |
|    \\/     M anipulation  | For copyright notice see file Copyright         |
\*---------------------------------------------------------------------------*/
FoamFile
{
    version     2.0;
    format      ascii;
    class       dictionary;
    object      fvSolution;
}
// * * * * * * * * * * * * * * * * * * * * * * * * * * * * * * * * * * * * * //

solvers
{
    p
    {
        solver           CG;
        preconditioner   Cholesky;
        tolerance        1e-06;
        relTol           0;
    }
    U
    {
        solver           BiCGStab;
        preconditioner   DILU;
        tolerance        1e-05;
        relTol           0;
    }
    B
    {
        solver           BiCGStab;
        preconditioner   DILU;
        tolerance        1e-05;
        relTol           0;
    }
    pB
    {
        solver           CG;
        preconditioner   Cholesky;
        tolerance        1e-05;
        relTol           0;
    }
}

PISO
{
    nCorrectors     3;
    nNonOrthogonalCorrectors 0;
}

BPISO
{
    nCorrectors     3;
}

// ************************************************************************* //
/*---------------------------------------------------------------------------*\
| =========                 |                                                 |
| \\      /  F ield         | foam-extend: Open Source CFD                    |
|  \\    /   O peration     | Version:     5.0                                |
|   \\  /    A nd           | Web:         http://www.foam-extend.org         |
|    \\/     M anipulation  | For copyright notice see file Copyright         |
\*---------------------------------------------------------------------------*/
Build  : 5.0-73c2a3d539c2
Exec   : mhdFoam
Date   : Jul 10 2023
Time   : 12:17:30
Host   : "ojm40-OMEN"
PID    : 333926
CtrlDict : "/home/ojm40/foam/ojm40-5.0/work/liquidMetalBattery/run/hartmannMHD/system/controlDict"
Case   : /home/ojm40/foam/ojm40-5.0/work/liquidMetalBattery/run/hartmannMHD
nProcs : 1
sigFpe : Enabling floating point exception trapping (FOAM_SIGFPE).
allowSystemOperations : Disallowing user-supplied system call operations

// * * * * * * * * * * * * * * * * * * * * * * * * * * * * * * * * * * * * * //
Create time

Create mesh for time = 0


PISO: Operating solver in PISO mode

Reading transportProperties

Reading field p

Reading field U

Reading/calculating face flux field phi

Reading field pB

Reading field B

Calculating face flux


Starting time loop
Time = 0.000333333

Courant Number mean: 0 max: 0.00333333 velocity magnitude: 1
BiCGStab:  Solving for Ux, Initial residual = 1, Final residual = 1.39715e-06, No Iterations 1
BiCGStab:  Solving for Uy, Initial residual = 0, Final residual = 0, No Iterations 0
CholeskyCG:  Solving for p, Initial residual = 1, Final residual = 6.8557e-07, No Iterations 107
time step continuity errors : sum local = 1.14262e-11, global = -2.77161e-14, cumulative = -2.77161e-14
CholeskyCG:  Solving for p, Initial residual = 0.0010844, Final residual = 6.47696e-07, No Iterations 91
time step continuity errors : sum local = 2.19305e-09, global = 5.24236e-12, cumulative = 5.21465e-12
CholeskyCG:  Solving for p, Initial residual = 7.48988e-05, Final residual = 6.57386e-07, No Iterations 81
time step continuity errors : sum local = 1.74946e-09, global = 1.09138e-12, cumulative = 6.30603e-12
BiCGStab:  Solving for Bx, Initial residual = 1, Final residual = 9.78261e-07, No Iterations 1
BiCGStab:  Solving for By, Initial residual = 1, Final residual = 1.21173e-06, No Iterations 1
CholeskyCG:  Solving for pB, Initial residual = 1, Final residual = 9.37705e-06, No Iterations 77
magnetic flux divergence error = 1.18525e-13
BiCGStab:  Solving for Bx, Initial residual = 3.58376e-06, Final residual = 3.58376e-06, No Iterations 0
BiCGStab:  Solving for By, Initial residual = 0.000154547, Final residual = 1.65232e-10, No Iterations 1
CholeskyCG:  Solving for pB, Initial residual = 9.95464e-05, Final residual = 7.89414e-06, No Iterations 1
magnetic flux divergence error = 1.99564e-13
BiCGStab:  Solving for Bx, Initial residual = 3.58376e-06, Final residual = 3.58376e-06, No Iterations 0
BiCGStab:  Solving for By, Initial residual = 2.61967e-09, Final residual = 2.61967e-09, No Iterations 0
CholeskyCG:  Solving for pB, Initial residual = 7.89416e-06, Final residual = 7.89416e-06, No Iterations 0
magnetic flux divergence error = 1.99564e-13
Time = 0.000666667

Courant Number mean: 0.000338799 max: 0.00336914 velocity magnitude: 1.01969
BiCGStab:  Solving for Ux, Initial residual = 0.971389, Final residual = 9.68021e-08, No Iterations 1
BiCGStab:  Solving for Uy, Initial residual = 0.332449, Final residual = 3.92513e-07, No Iterations 1
CholeskyCG:  Solving for p, Initial residual = 0.0062467, Final residual = 5.78044e-07, No Iterations 95
time step continuity errors : sum local = 1.53005e-09, global = 1.22016e-11, cumulative = 1.85076e-11
CholeskyCG:  Solving for p, Initial residual = 0.00518904, Final residual = 8.24719e-07, No Iterations 94
time step continuity errors : sum local = 5.77292e-10, global = -5.07525e-13, cumulative = 1.80001e-11
CholeskyCG:  Solving for p, Initial residual = 0.00630368, Final residual = 5.87857e-07, No Iterations 91
time step continuity errors : sum local = 1.60585e-11, global = -1.75005e-13, cumulative = 1.78251e-11
BiCGStab:  Solving for Bx, Initial residual = 0.294874, Final residual = 2.40749e-07, No Iterations 1
BiCGStab:  Solving for By, Initial residual = 0.45508, Final residual = 5.59656e-07, No Iterations 1
CholeskyCG:  Solving for pB, Initial residual = 0.24655, Final residual = 9.63221e-06, No Iterations 32
magnetic flux divergence error = 3.04636e-13
BiCGStab:  Solving for Bx, Initial residual = 1.55675e-06, Final residual = 1.55675e-06, No Iterations 0
BiCGStab:  Solving for By, Initial residual = 9.90909e-05, Final residual = 1.0958e-10, No Iterations 1
CholeskyCG:  Solving for pB, Initial residual = 0.000123206, Final residual = 4.81837e-06, No Iterations 2
magnetic flux divergence error = 1.82975e-13
BiCGStab:  Solving for Bx, Initial residual = 1.55673e-06, Final residual = 1.55673e-06, No Iterations 0
BiCGStab:  Solving for By, Initial residual = 3.07325e-09, Final residual = 3.07325e-09, No Iterations 0
CholeskyCG:  Solving for pB, Initial residual = 4.81826e-06, Final residual = 4.81826e-06, No Iterations 0
magnetic flux divergence error = 1.82975e-13
Time = 0.001

Courant Number mean: 0.000339963 max: 0.00339996 velocity magnitude: 1.03288
BiCGStab:  Solving for Ux, Initial residual = 0.150138, Final residual = 1.78235e-07, No Iterations 1
BiCGStab:  Solving for Uy, Initial residual = 0.181919, Final residual = 2.25365e-07, No Iterations 1
CholeskyCG:  Solving for p, Initial residual = 0.0279102, Final residual = 7.02592e-07, No Iterations 94
time step continuity errors : sum local = 1.99172e-11, global = -1.70248e-13, cumulative = 1.76548e-11
CholeskyCG:  Solving for p, Initial residual = 0.00388481, Final residual = 7.83141e-07, No Iterations 90
time step continuity errors : sum local = 1.8303e-11, global = -1.31296e-13, cumulative = 1.75235e-11
CholeskyCG:  Solving for p, Initial residual = 0.000347439, Final residual = 9.85399e-07, No Iterations 8
time step continuity errors : sum local = 2.40033e-11, global = -1.03657e-11, cumulative = 7.15788e-12
BiCGStab:  Solving for Bx, Initial residual = 0.165772, Final residual = 8.56889e-08, No Iterations 1
BiCGStab:  Solving for By, Initial residual = 0.281238, Final residual = 3.52465e-07, No Iterations 1
CholeskyCG:  Solving for pB, Initial residual = 0.134636, Final residual = 8.87433e-06, No Iterations 21
magnetic flux divergence error = 3.77998e-13
BiCGStab:  Solving for Bx, Initial residual = 9.19592e-07, Final residual = 9.19592e-07, No Iterations 0
BiCGStab:  Solving for By, Initial residual = 7.20719e-05, Final residual = 8.295e-11, No Iterations 1
CholeskyCG:  Solving for pB, Initial residual = 0.000131528, Final residual = 5.01387e-06, No Iterations 2
magnetic flux divergence error = 2.36731e-13
BiCGStab:  Solving for Bx, Initial residual = 9.1956e-07, Final residual = 9.1956e-07, No Iterations 0
BiCGStab:  Solving for By, Initial residual = 3.32184e-09, Final residual = 3.32184e-09, No Iterations 0
CholeskyCG:  Solving for pB, Initial residual = 5.01373e-06, Final residual = 5.01373e-06, No Iterations 0
magnetic flux divergence error = 2.36731e-13
Time = 0.00133333

Courant Number mean: 0.000340928 max: 0.00342584 velocity magnitude: 1.04281
BiCGStab:  Solving for Ux, Initial residual = 0.100402, Final residual = 1.05215e-07, No Iterations 1
BiCGStab:  Solving for Uy, Initial residual = 0.119498, Final residual = 1.51663e-07, No Iterations 1
CholeskyCG:  Solving for p, Initial residual = 0.0204351, Final residual = 7.53916e-07, No Iterations 93
time step continuity errors : sum local = 1.8079e-11, global = -1.47783e-13, cumulative = 7.01009e-12
CholeskyCG:  Solving for p, Initial residual = 0.00274762, Final residual = 8.53619e-07, No Iterations 89
time step continuity errors : sum local = 1.73404e-11, global = 1.01571e-13, cumulative = 7.11166e-12
CholeskyCG:  Solving for p, Initial residual = 0.000249469, Final residual = 9.58325e-07, No Iterations 7
time step continuity errors : sum local = 2.01769e-11, global = -7.84859e-12, cumulative = -7.36923e-13
BiCGStab:  Solving for Bx, Initial residual = 0.114031, Final residual = 5.77171e-08, No Iterations 1
BiCGStab:  Solving for By, Initial residual = 0.198214, Final residual = 2.53231e-07, No Iterations 1
CholeskyCG:  Solving for pB, Initial residual = 0.0888868, Final residual = 7.49054e-06, No Iterations 21
magnetic flux divergence error = 3.81381e-13
BiCGStab:  Solving for Bx, Initial residual = 6.54557e-07, Final residual = 6.54557e-07, No Iterations 0
BiCGStab:  Solving for By, Initial residual = 5.64931e-05, Final residual = 6.74296e-11, No Iterations 1
CholeskyCG:  Solving for pB, Initial residual = 0.000134143, Final residual = 5.16433e-06, No Iterations 2
magnetic flux divergence error = 2.82049e-13
BiCGStab:  Solving for Bx, Initial residual = 6.54524e-07, Final residual = 6.54524e-07, No Iterations 0
BiCGStab:  Solving for By, Initial residual = 3.40277e-09, Final residual = 3.40277e-09, No Iterations 0
CholeskyCG:  Solving for pB, Initial residual = 5.16419e-06, Final residual = 5.16419e-06, No Iterations 0
magnetic flux divergence error = 2.82049e-13
Time = 0.00166667

Courant Number mean: 0.000341755 max: 0.00344841 velocity magnitude: 1.05268
BiCGStab:  Solving for Ux, Initial residual = 0.074283, Final residual = 6.60255e-08, No Iterations 1
BiCGStab:  Solving for Uy, Initial residual = 0.0861734, Final residual = 1.11601e-07, No Iterations 1
CholeskyCG:  Solving for p, Initial residual = 0.0157161, Final residual = 9.53736e-07, No Iterations 91
time step continuity errors : sum local = 1.98411e-11, global = 2.15447e-13, cumulative = -5.21476e-13
CholeskyCG:  Solving for p, Initial residual = 0.0020124, Final residual = 8.33094e-07, No Iterations 88
time step continuity errors : sum local = 1.50346e-11, global = 1.89916e-13, cumulative = -3.3156e-13
CholeskyCG:  Solving for p, Initial residual = 0.000187871, Final residual = 7.43299e-07, No Iterations 7
time step continuity errors : sum local = 1.38314e-11, global = -5.98528e-12, cumulative = -6.31684e-12
BiCGStab:  Solving for Bx, Initial residual = 0.0870989, Final residual = 5.62557e-08, No Iterations 1
BiCGStab:  Solving for By, Initial residual = 0.150238, Final residual = 1.95928e-07, No Iterations 1
CholeskyCG:  Solving for pB, Initial residual = 0.071916, Final residual = 9.64257e-06, No Iterations 23
magnetic flux divergence error = 5.51791e-13
BiCGStab:  Solving for Bx, Initial residual = 5.10989e-07, Final residual = 5.10989e-07, No Iterations 0
BiCGStab:  Solving for By, Initial residual = 4.63565e-05, Final residual = 5.66048e-11, No Iterations 1
CholeskyCG:  Solving for pB, Initial residual = 0.000148126, Final residual = 6.39333e-06, No Iterations 2
magnetic flux divergence error = 3.8254e-13
BiCGStab:  Solving for Bx, Initial residual = 5.10961e-07, Final residual = 5.10961e-07, No Iterations 0
BiCGStab:  Solving for By, Initial residual = 3.38484e-09, Final residual = 3.38484e-09, No Iterations 0
CholeskyCG:  Solving for pB, Initial residual = 6.39318e-06, Final residual = 6.39318e-06, No Iterations 0
magnetic flux divergence error = 3.8254e-13
Time = 0.002

Courant Number mean: 0.000342479 max: 0.00346845 velocity magnitude: 1.06071
BiCGStab:  Solving for Ux, Initial residual = 0.0579403, Final residual = 4.33258e-08, No Iterations 1
BiCGStab:  Solving for Uy, Initial residual = 0.0659767, Final residual = 8.68589e-08, No Iterations 1
CholeskyCG:  Solving for p, Initial residual = 0.0125866, Final residual = 6.82239e-07, No Iterations 91
time step continuity errors : sum local = 1.25724e-11, global = 1.35288e-13, cumulative = -6.18156e-12
CholeskyCG:  Solving for p, Initial residual = 0.00152028, Final residual = 6.32265e-07, No Iterations 88
time step continuity errors : sum local = 1.03122e-11, global = 1.33867e-13, cumulative = -6.04769e-12
CholeskyCG:  Solving for p, Initial residual = 0.000147476, Final residual = 7.69196e-07, No Iterations 6
time step continuity errors : sum local = 1.28782e-11, global = -4.6183e-12, cumulative = -1.0666e-11
BiCGStab:  Solving for Bx, Initial residual = 0.0709526, Final residual = 5.12377e-08, No Iterations 1
BiCGStab:  Solving for By, Initial residual = 0.119373, Final residual = 1.58758e-07, No Iterations 1
CholeskyCG:  Solving for pB, Initial residual = 0.0564348, Final residual = 9.998e-06, No Iterations 25
magnetic flux divergence error = 6.23926e-13
BiCGStab:  Solving for Bx, Initial residual = 4.19249e-07, Final residual = 4.19249e-07, No Iterations 0
BiCGStab:  Solving for By, Initial residual = 3.93103e-05, Final residual = 4.92748e-11, No Iterations 1
CholeskyCG:  Solving for pB, Initial residual = 0.000155245, Final residual = 6.49861e-06, No Iterations 2
magnetic flux divergence error = 4.22262e-13
BiCGStab:  Solving for Bx, Initial residual = 4.19224e-07, Final residual = 4.19224e-07, No Iterations 0
BiCGStab:  Solving for By, Initial residual = 3.29349e-09, Final residual = 3.29349e-09, No Iterations 0
CholeskyCG:  Solving for pB, Initial residual = 6.49836e-06, Final residual = 6.49836e-06, No Iterations 0
magnetic flux divergence error = 4.22262e-13
Time = 0.00233333

Courant Number mean: 0.000343122 max: 0.00348653 velocity magnitude: 1.0671
BiCGStab:  Solving for Ux, Initial residual = 0.0468337, Final residual = 2.95756e-08, No Iterations 1
BiCGStab:  Solving for Uy, Initial residual = 0.052713, Final residual = 7.03219e-08, No Iterations 1
CholeskyCG:  Solving for p, Initial residual = 0.0103677, Final residual = 8.72576e-07, No Iterations 90
time step continuity errors : sum local = 1.44895e-11, global = 1.9581e-14, cumulative = -1.06464e-11
CholeskyCG:  Solving for p, Initial residual = 0.00119133, Final residual = 7.94632e-07, No Iterations 87
time step continuity errors : sum local = 1.18766e-11, global = 3.19621e-14, cumulative = -1.06144e-11
CholeskyCG:  Solving for p, Initial residual = 0.000119487, Final residual = 8.71722e-07, No Iterations 5
time step continuity errors : sum local = 1.33241e-11, global = -3.61064e-12, cumulative = -1.42251e-11
BiCGStab:  Solving for Bx, Initial residual = 0.0603127, Final residual = 4.44934e-08, No Iterations 1
BiCGStab:  Solving for By, Initial residual = 0.0993644, Final residual = 1.32653e-07, No Iterations 1
CholeskyCG:  Solving for pB, Initial residual = 0.0544698, Final residual = 9.29265e-06, No Iterations 21
magnetic flux divergence error = 6.28085e-13
BiCGStab:  Solving for Bx, Initial residual = 3.51843e-07, Final residual = 3.51843e-07, No Iterations 0
BiCGStab:  Solving for By, Initial residual = 3.41317e-05, Final residual = 4.37548e-11, No Iterations 1
CholeskyCG:  Solving for pB, Initial residual = 0.000155991, Final residual = 7.05097e-06, No Iterations 2
magnetic flux divergence error = 4.94991e-13
BiCGStab:  Solving for Bx, Initial residual = 3.51818e-07, Final residual = 3.51818e-07, No Iterations 0
BiCGStab:  Solving for By, Initial residual = 3.19787e-09, Final residual = 3.19787e-09, No Iterations 0
CholeskyCG:  Solving for pB, Initial residual = 7.05071e-06, Final residual = 7.05071e-06, No Iterations 0
magnetic flux divergence error = 4.94991e-13
Time = 0.00266667

Courant Number mean: 0.0003437 max: 0.00350308 velocity magnitude: 1.072
BiCGStab:  Solving for Ux, Initial residual = 0.0389977, Final residual = 2.21691e-08, No Iterations 1
BiCGStab:  Solving for Uy, Initial residual = 0.043506, Final residual = 5.86172e-08, No Iterations 1
CholeskyCG:  Solving for p, Initial residual = 0.00870688, Final residual = 6.68649e-07, No Iterations 90
time step continuity errors : sum local = 1.01474e-11, global = 9.99136e-15, cumulative = -1.42151e-11
CholeskyCG:  Solving for p, Initial residual = 0.00097828, Final residual = 6.40189e-07, No Iterations 87
time step continuity errors : sum local = 8.86822e-12, global = 2.88177e-14, cumulative = -1.41863e-11
CholeskyCG:  Solving for p, Initial residual = 9.85634e-05, Final residual = 5.97945e-07, No Iterations 5
time step continuity errors : sum local = 8.44436e-12, global = -2.87901e-12, cumulative = -1.70653e-11
BiCGStab:  Solving for Bx, Initial residual = 0.0527899, Final residual = 3.82526e-08, No Iterations 1
BiCGStab:  Solving for By, Initial residual = 0.0849403, Final residual = 1.13594e-07, No Iterations 1
CholeskyCG:  Solving for pB, Initial residual = 0.0572983, Final residual = 9.4351e-06, No Iterations 25
magnetic flux divergence error = 6.82334e-13
BiCGStab:  Solving for Bx, Initial residual = 3.00983e-07, Final residual = 3.00983e-07, No Iterations 0
BiCGStab:  Solving for By, Initial residual = 3.01002e-05, Final residual = 3.92663e-11, No Iterations 1
CholeskyCG:  Solving for pB, Initial residual = 0.0001571, Final residual = 6.96804e-06, No Iterations 2
magnetic flux divergence error = 5.18668e-13
BiCGStab:  Solving for Bx, Initial residual = 3.00964e-07, Final residual = 3.00964e-07, No Iterations 0
BiCGStab:  Solving for By, Initial residual = 3.06609e-09, Final residual = 3.06609e-09, No Iterations 0
CholeskyCG:  Solving for pB, Initial residual = 6.96782e-06, Final residual = 6.96782e-06, No Iterations 0
magnetic flux divergence error = 5.18668e-13
Time = 0.003

Courant Number mean: 0.000344228 max: 0.0035184 velocity magnitude: 1.07558
BiCGStab:  Solving for Ux, Initial residual = 0.0333913, Final residual = 1.80208e-08, No Iterations 1
BiCGStab:  Solving for Uy, Initial residual = 0.0368334, Final residual = 4.99691e-08, No Iterations 1
CholeskyCG:  Solving for p, Initial residual = 0.00756526, Final residual = 9.28921e-07, No Iterations 89
time step continuity errors : sum local = 1.30357e-11, global = -1.54039e-13, cumulative = -1.72193e-11
CholeskyCG:  Solving for p, Initial residual = 0.000816031, Final residual = 9.11416e-07, No Iterations 86
time step continuity errors : sum local = 1.18114e-11, global = -1.27978e-13, cumulative = -1.73473e-11
CholeskyCG:  Solving for p, Initial residual = 8.30133e-05, Final residual = 8.19045e-07, No Iterations 4
time step continuity errors : sum local = 1.07932e-11, global = -2.31373e-12, cumulative = -1.9661e-11
BiCGStab:  Solving for Bx, Initial residual = 0.0471727, Final residual = 3.26899e-08, No Iterations 1
BiCGStab:  Solving for By, Initial residual = 0.0740182, Final residual = 9.91912e-08, No Iterations 1
CholeskyCG:  Solving for pB, Initial residual = 0.0491822, Final residual = 9.95163e-06, No Iterations 24
magnetic flux divergence error = 7.62676e-13
BiCGStab:  Solving for Bx, Initial residual = 2.62503e-07, Final residual = 2.62503e-07, No Iterations 0
BiCGStab:  Solving for By, Initial residual = 2.69781e-05, Final residual = 3.56611e-11, No Iterations 1
CholeskyCG:  Solving for pB, Initial residual = 0.000154593, Final residual = 7.25504e-06, No Iterations 2
magnetic flux divergence error = 5.71996e-13
BiCGStab:  Solving for Bx, Initial residual = 2.62488e-07, Final residual = 2.62488e-07, No Iterations 0
BiCGStab:  Solving for By, Initial residual = 2.93561e-09, Final residual = 2.93561e-09, No Iterations 0
CholeskyCG:  Solving for pB, Initial residual = 7.25485e-06, Final residual = 7.25485e-06, No Iterations 0
magnetic flux divergence error = 5.71996e-13
Time = 0.00333333

Courant Number mean: 0.000344715 max: 0.00353272 velocity magnitude: 1.08017
BiCGStab:  Solving for Ux, Initial residual = 0.0291015, Final residual = 1.50881e-08, No Iterations 1
BiCGStab:  Solving for Uy, Initial residual = 0.0318167, Final residual = 4.33568e-08, No Iterations 1
CholeskyCG:  Solving for p, Initial residual = 0.0069052, Final residual = 7.68275e-07, No Iterations 89
time step continuity errors : sum local = 1.00667e-11, global = -1.20821e-13, cumulative = -1.97819e-11
CholeskyCG:  Solving for p, Initial residual = 0.000688117, Final residual = 9.58115e-07, No Iterations 85
time step continuity errors : sum local = 1.17062e-11, global = -1.82181e-13, cumulative = -1.9964e-11
CholeskyCG:  Solving for p, Initial residual = 7.14477e-05, Final residual = 7.29167e-07, No Iterations 4
time step continuity errors : sum local = 9.03985e-12, global = -1.90705e-12, cumulative = -2.18711e-11
BiCGStab:  Solving for Bx, Initial residual = 0.0427956, Final residual = 2.78237e-08, No Iterations 1
BiCGStab:  Solving for By, Initial residual = 0.0654396, Final residual = 8.77738e-08, No Iterations 1
CholeskyCG:  Solving for pB, Initial residual = 0.0439884, Final residual = 9.99089e-06, No Iterations 25
magnetic flux divergence error = 8.09937e-13
BiCGStab:  Solving for Bx, Initial residual = 2.32406e-07, Final residual = 2.32406e-07, No Iterations 0
BiCGStab:  Solving for By, Initial residual = 2.44297e-05, Final residual = 3.2679e-11, No Iterations 1
CholeskyCG:  Solving for pB, Initial residual = 0.000151346, Final residual = 7.60377e-06, No Iterations 2
magnetic flux divergence error = 6.33347e-13
BiCGStab:  Solving for Bx, Initial residual = 2.32388e-07, Final residual = 2.32388e-07, No Iterations 0
BiCGStab:  Solving for By, Initial residual = 2.77742e-09, Final residual = 2.77742e-09, No Iterations 0
CholeskyCG:  Solving for pB, Initial residual = 7.60359e-06, Final residual = 7.60359e-06, No Iterations 0
magnetic flux divergence error = 6.33347e-13
Time = 0.00366667

Courant Number mean: 0.000345167 max: 0.00354623 velocity magnitude: 1.08471
BiCGStab:  Solving for Ux, Initial residual = 0.0257291, Final residual = 1.3404e-08, No Iterations 1
BiCGStab:  Solving for Uy, Initial residual = 0.027942, Final residual = 3.81551e-08, No Iterations 1
CholeskyCG:  Solving for p, Initial residual = 0.00633436, Final residual = 6.39669e-07, No Iterations 89
time step continuity errors : sum local = 7.88943e-12, global = -9.33807e-14, cumulative = -2.19645e-11
CholeskyCG:  Solving for p, Initial residual = 0.00058495, Final residual = 9.82644e-07, No Iterations 84
time step continuity errors : sum local = 1.13919e-11, global = -4.52322e-14, cumulative = -2.20097e-11
CholeskyCG:  Solving for p, Initial residual = 6.21314e-05, Final residual = 6.81911e-07, No Iterations 4
time step continuity errors : sum local = 8.00763e-12, global = -1.58498e-12, cumulative = -2.35947e-11
BiCGStab:  Solving for Bx, Initial residual = 0.0392681, Final residual = 2.36555e-08, No Iterations 1
BiCGStab:  Solving for By, Initial residual = 0.0583404, Final residual = 7.83154e-08, No Iterations 1
CholeskyCG:  Solving for pB, Initial residual = 0.0384821, Final residual = 9.91023e-06, No Iterations 22
magnetic flux divergence error = 8.46191e-13
BiCGStab:  Solving for Bx, Initial residual = 2.08034e-07, Final residual = 2.08034e-07, No Iterations 0
BiCGStab:  Solving for By, Initial residual = 2.22074e-05, Final residual = 3.0065e-11, No Iterations 1
CholeskyCG:  Solving for pB, Initial residual = 0.000146774, Final residual = 8.07302e-06, No Iterations 2
magnetic flux divergence error = 7.06208e-13
BiCGStab:  Solving for Bx, Initial residual = 2.08007e-07, Final residual = 2.08007e-07, No Iterations 0
BiCGStab:  Solving for By, Initial residual = 2.62079e-09, Final residual = 2.62079e-09, No Iterations 0
CholeskyCG:  Solving for pB, Initial residual = 8.07286e-06, Final residual = 8.07286e-06, No Iterations 0
magnetic flux divergence error = 7.06208e-13
Time = 0.004

Courant Number mean: 0.000345591 max: 0.00355906 velocity magnitude: 1.0886
BiCGStab:  Solving for Ux, Initial residual = 0.0230166, Final residual = 1.21945e-08, No Iterations 1
BiCGStab:  Solving for Uy, Initial residual = 0.0248722, Final residual = 3.39733e-08, No Iterations 1
CholeskyCG:  Solving for p, Initial residual = 0.00582889, Final residual = 8.98802e-07, No Iterations 88
time step continuity errors : sum local = 1.05048e-11, global = -1.39603e-13, cumulative = -2.37343e-11
CholeskyCG:  Solving for p, Initial residual = 0.000500525, Final residual = 8.53169e-07, No Iterations 84
time step continuity errors : sum local = 9.43562e-12, global = -4.40597e-14, cumulative = -2.37783e-11
CholeskyCG:  Solving for p, Initial residual = 5.42137e-05, Final residual = 9.84031e-07, No Iterations 3
time step continuity errors : sum local = 1.10075e-11, global = -1.30857e-12, cumulative = -2.50869e-11
BiCGStab:  Solving for Bx, Initial residual = 0.0363484, Final residual = 2.01436e-08, No Iterations 1
BiCGStab:  Solving for By, Initial residual = 0.0523743, Final residual = 7.02707e-08, No Iterations 1
CholeskyCG:  Solving for pB, Initial residual = 0.0352203, Final residual = 9.09433e-06, No Iterations 26
magnetic flux divergence error = 8.1476e-13
BiCGStab:  Solving for Bx, Initial residual = 1.87601e-07, Final residual = 1.87601e-07, No Iterations 0
BiCGStab:  Solving for By, Initial residual = 2.02915e-05, Final residual = 2.77401e-11, No Iterations 1
CholeskyCG:  Solving for pB, Initial residual = 0.000141749, Final residual = 7.74192e-06, No Iterations 2
magnetic flux divergence error = 7.09959e-13
BiCGStab:  Solving for Bx, Initial residual = 1.87577e-07, Final residual = 1.87577e-07, No Iterations 0
BiCGStab:  Solving for By, Initial residual = 2.53621e-09, Final residual = 2.53621e-09, No Iterations 0
CholeskyCG:  Solving for pB, Initial residual = 7.74168e-06, Final residual = 7.74168e-06, No Iterations 0
magnetic flux divergence error = 7.09959e-13
Time = 0.00433333

Courant Number mean: 0.00034599 max: 0.00357131 velocity magnitude: 1.0919
BiCGStab:  Solving for Ux, Initial residual = 0.0208392, Final residual = 1.11053e-08, No Iterations 1
BiCGStab:  Solving for Uy, Initial residual = 0.0224029, Final residual = 3.05471e-08, No Iterations 1
CholeskyCG:  Solving for p, Initial residual = 0.00537445, Final residual = 7.78332e-07, No Iterations 88
time step continuity errors : sum local = 8.66878e-12, global = -1.04495e-13, cumulative = -2.51914e-11
CholeskyCG:  Solving for p, Initial residual = 0.000430362, Final residual = 7.67796e-07, No Iterations 84
time step continuity errors : sum local = 8.13722e-12, global = -4.36314e-14, cumulative = -2.5235e-11
CholeskyCG:  Solving for p, Initial residual = 4.75268e-05, Final residual = 8.40924e-07, No Iterations 3
time step continuity errors : sum local = 9.00349e-12, global = -1.12085e-12, cumulative = -2.63559e-11
BiCGStab:  Solving for Bx, Initial residual = 0.0340477, Final residual = 1.72214e-08, No Iterations 1
BiCGStab:  Solving for By, Initial residual = 0.0474129, Final residual = 6.3548e-08, No Iterations 1
CholeskyCG:  Solving for pB, Initial residual = 0.0358103, Final residual = 9.82173e-06, No Iterations 22
magnetic flux divergence error = 9.21768e-13
BiCGStab:  Solving for Bx, Initial residual = 1.69839e-07, Final residual = 1.69839e-07, No Iterations 0
BiCGStab:  Solving for By, Initial residual = 1.86439e-05, Final residual = 2.57134e-11, No Iterations 1