/*--------------------------------*- C++ -*----------------------------------*\
| =========                 |                                                 |
| \\      /  F ield         | foam-extend: Open Source CFD                    |
|  \\    /   O peration     | Version:     5.0                                |
|   \\  /    A nd           | Web:         http://www.foam-extend.org         |
|    \\/     M anipulation  |                                                 |
\*---------------------------------------------------------------------------*/
FoamFile
{
    version     2.0;
    format      ascii;
    class       polyBoundaryMesh;
    location    "constant/polyMesh";
    object      boundary;
}
// * * * * * * * * * * * * * * * * * * * * * * * * * * * * * * * * * * * * * //

5
(
    inlet
    {
        type            patch;
        nFaces          320;
        startFace       510880;
    }
    outlet
    {
        type            patch;
        nFaces          320;
        startFace       511200;
    }
    lowerWall
    {
        type            patch;
        nFaces          800;
        startFace       511520;
    }
    upperWall
    {
        type            patch;
        nFaces          800;
        startFace       512320;
    }
    frontAndBack
    {
        type            empty;
        nFaces          512000;
        startFace       513120;
    }
)


// ************************************************************************* //
