/*--------------------------------*- C++ -*----------------------------------*\
| =========                 |                                                 |
| \\      /  F ield         | foam-extend: Open Source CFD                    |
|  \\    /   O peration     | Version:     5.0                                |
|   \\  /    A nd           | Web:         http://www.foam-extend.org         |
|    \\/     M anipulation  |                                                 |
\*---------------------------------------------------------------------------*/
FoamFile
{
    version     2.0;
    format      ascii;
    class       polyBoundaryMesh;
    location    "constant/polyMesh";
    object      boundary;
}
// * * * * * * * * * * * * * * * * * * * * * * * * * * * * * * * * * * * * * //

4
(
    sideWalls
    {
        type            wall;
        nFaces          3000;
        startFace       50892;
        closedSolidBodyMotion false;
    }
    bottomWall
    {
        type            wall;
        nFaces          900;
        startFace       53892;
        closedSolidBodyMotion false;
    }
    lithiumInterface
    {
        type            wall;
        nFaces          1344;
        startFace       54792;
        closedSolidBodyMotion false;
    }
    topSurface
    {
        type            patch;
        nFaces          324;
        startFace       56136;
    }
)


// ************************************************************************* //
