/*--------------------------------*- C++ -*----------------------------------*\
| =========                 |                                                 |
| \\      /  F ield         | foam-extend: Open Source CFD                    |
|  \\    /   O peration     | Version:     5.0                                |
|   \\  /    A nd           | Web:         http://www.foam-extend.org         |
|    \\/     M anipulation  |                                                 |
\*---------------------------------------------------------------------------*/
FoamFile
{
    version     2.0;
    format      ascii;
    class       polyBoundaryMesh;
    location    "constant/polyMesh";
    object      boundary;
}
// * * * * * * * * * * * * * * * * * * * * * * * * * * * * * * * * * * * * * //

4
(
    sideWalls
    {
        type            wall;
        nFaces          6000;
        startFace       186000;
        closedSolidBodyMotion false;
    }
    bottomWall
    {
        type            wall;
        nFaces          2400;
        startFace       192000;
        closedSolidBodyMotion false;
    }
    lithiumInterface
    {
        type            wall;
        nFaces          2000;
        startFace       194400;
        closedSolidBodyMotion false;
    }
    topSurface
    {
        type            patch;
        nFaces          1600;
        startFace       196400;
    }
)


// ************************************************************************* //
