/*--------------------------------*- C++ -*----------------------------------*\
| =========                 |                                                 |
| \\      /  F ield         | foam-extend: Open Source CFD                    |
|  \\    /   O peration     | Version:     5.0                                |
|   \\  /    A nd           | Web:         http://www.foam-extend.org         |
|    \\/     M anipulation  | For copyright notice see file Copyright         |
\*---------------------------------------------------------------------------*/
FoamFile
{
    version     2.0;
    format      ascii;
    class       dictionary;
    object      fvSchemes;
}
// * * * * * * * * * * * * * * * * * * * * * * * * * * * * * * * * * * * * * //

ddtSchemes
{
    default Euler;
}

gradSchemes
{
    default         Gauss linear;
    grad(pd)        interfaceGauss linear;
    snGradCorr(pd)  interfaceGauss linear;
}

divSchemes
{
    div(phi,U)  Gauss linearUpwindV grad(U);
    div(phi,alpha)  Gauss vanLeer01;
    div(phirb,alpha) Gauss vofCompression;
    div(((rho*nuEff)*dev2(T(grad(U))))) Gauss linear;
    div(phi,k) Gauss upwind;
    div(phi,epsilon) Gauss upwind;
}

laplacianSchemes
{
    default         Gauss linear corrected;
    laplacian(rAU,pd) interfaceGauss linear interfaceCorrected;
}

interpolationSchemes
{
    default         linear;
}

snGradSchemes
{
    default         corrected;
    snGrad(pd)      interfaceCorrected;
}

// ************************************************************************* //
/*--------------------------------*- C++ -*----------------------------------*\
| =========                 |                                                 |
| \\      /  F ield         | foam-extend: Open Source CFD                    |
|  \\    /   O peration     | Version:     5.0                                |
|   \\  /    A nd           | Web:         http://www.foam-extend.org         |
|    \\/     M anipulation  | For copyright notice see file Copyright         |
\*---------------------------------------------------------------------------*/
FoamFile
{
    version     2.0;
    format      ascii;
    class       dictionary;
    object      fvSolution;
}
// * * * * * * * * * * * * * * * * * * * * * * * * * * * * * * * * * * * * * //

solvers
{
    "p|pd|pdFinal|Voltage"
    {
        solver            amgSolver;
        cycle             V-cycle;
//        policy            selectionAMG;
        policy            cluster;
        nPreSweeps        1;
        nPostSweeps       3;
        groupSize         8;
        minCoarseEqns     4;
        nMaxLevels        100;
        scale             on;
        smoother          ILUC0;

        minIter           1;
        maxIter           20;
        tolerance         1e-8;
        relTol            0.0;
    }
    "(U|UFinal)"
    {
        solver            BiCGStab;
        preconditioner    ILU0;

        minIter           1;
        maxIter           500;
        tolerance         1e-8;
        relTol            0.0;
    }
    "k|epsilon"
    {
        solver          BiCGStab;
        preconditioner    ILU0;

        minIter           1;
        maxIter           500;
        tolerance         1e-8;
        relTol            0.0;
    }
}

PISO
{
    cAlpha          1;
}
PIMPLE
{
    nOuterCorrectors    2;
    nCorrectors         2;
    nNonOrthogonalCorrectors 0;
    pdRefCell 0;
    pdRefValue 0;
}

relaxationFactors
{
    equations
    {
        U        1; // 0.8
        UFinal   1;
    }
    fields
    {
        pd       1;
    }
}

isoAdvector
{
    // Note: use full Crank-Nicolson when topo changes are not occuring,
    // otherwise the code resorts to Euler implicit
//    CrankNicolsonCoeff 0.5;

    // Euler implicit
    CrankNicolsonCoeff 1;

    gradAlphaNormal true;

    alphaFluxTolerance 1e-12; // 10*SMALL by default

    // Determines which cells are classified as surface cells
    vof2IsoTol         1e-8; // 1e-8 by default

    clipAlphaTol 1e-6;
    nAlphaBounds 0;
    snapAlpha   false; // true
    extrapolateVelocity yes;
    secondOrderExtrapolation no;
}

// ************************************************************************* //
/*---------------------------------------------------------------------------*\
| =========                 |                                                 |
| \\      /  F ield         | foam-extend: Open Source CFD                    |
|  \\    /   O peration     | Version:     5.0                                |
|   \\  /    A nd           | Web:         http://www.foam-extend.org         |
|    \\/     M anipulation  | For copyright notice see file Copyright         |
\*---------------------------------------------------------------------------*/
Build  : 5.0-73c2a3d539c2
Exec   : lmbFoam
Date   : Jul 10 2023
Time   : 13:30:20
Host   : "ojm40-OMEN"
PID    : 335241
CtrlDict : "/home/ojm40/foam/ojm40-5.0/work/liquidMetalBattery/run/hartmannLMB/system/controlDict"
Case   : /home/ojm40/foam/ojm40-5.0/work/liquidMetalBattery/run/hartmannLMB
nProcs : 1
sigFpe : Enabling floating point exception trapping (FOAM_SIGFPE).
allowSystemOperations : Disallowing user-supplied system call operations

// * * * * * * * * * * * * * * * * * * * * * * * * * * * * * * * * * * * * * //
Create time

Create dynamic mesh for time = 0

--> FOAM Warning : 
    From function void* Foam::dlOpen(const Foam::fileName&, bool)
    in file POSIX.C at line 1204
    dlopen error : libmesquiteMotionSolver.so: cannot open shared object file: No such file or directory
--> FOAM Warning : 
    From function bool Foam::dlLibraryTable::open(const Foam::fileName&, bool)
    in file db/dynamicLibrary/dlLibraryTable/dlLibraryTable.C at line 97
    could not load "libmesquiteMotionSolver.so"
--> FOAM Warning : 
    From function dynamicFvMesh::New(const IOobject& io)
    in file dynamicFvMesh/newDynamicFvMesh.C at line 46
    Loading of dynamic mesh library libmesquiteMotionSolver.so unsuccesful. Some dynamic mesh  methods may not be  available
Selecting dynamicFvMesh staticFvMesh

PIMPLE: no residual control data found. Calculations will employ 2 corrector loops


Reading g
Reading field pd

Reading field alpha1

Reading field U

Reading/calculating face flux field phi

Reading transportProperties

Selecting incompressible transport model Newtonian
Selecting incompressible transport model Newtonian
Calculating field g.h

Reading field p

Selecting turbulence model type RASModel
Selecting RAS turbulence model kEpsilon
kEpsilonCoeffs
{
    Cmu             0.09;
    C1              1.44;
    C2              1.92;
    sigmaEps        1.3;
}

Number of internal interface faces: 0
Smoothing alpha field 1 times for curvature calculation.
amgSolver:  Solving for pd, Initial residual = 1, Final residual = 3.24394e-09, No Iterations 17
Reading field Electric Potential

Courant Number mean: 0.000341702 max: 0.00333333 velocity magnitude: 1

Starting time loop

Creating minMaxField for field pd
Creating minMaxField for field U
Creating minMaxField for field alpha1
Volume: new = 4 old = 4 change = 0 ratio = 0
Courant Number mean: 0.000341702 max: 0.00333333 velocity magnitude: 1
Interface Courant Number mean: 0 max: 0
Time = 0.000666667

PIMPLE: iteration 1
Mesh Courant Number mean: 0 max: 0
amgSolver:  Solving for Voltage, Initial residual = 0, Final residual = 0, No Iterations 1
BiCGStab:  Solving for Ux, Initial residual = 1, Final residual = 3.71908e-15, No Iterations 2
BiCGStab:  Solving for Uy, Initial residual = 1, Final residual = 5.3217e-15, No Iterations 2
amgSolver:  Solving for pd, Initial residual = 0.000773875, Final residual = 4.96411e-09, No Iterations 10
Updating old interface data for additonal non orthogonal/PISO correctors.
time step continuity errors : sum local = 1.47288e-11, global = -8.38545e-13, cumulative = -8.38545e-13
amgSolver:  Solving for pd, Initial residual = 4.86141e-05, Final residual = 6.9919e-09, No Iterations 8
time step continuity errors : sum local = 2.10374e-11, global = 1.20763e-12, cumulative = 3.69089e-13
Setting up velocity and flux fields for isoAdvector.
Number of isoAdvector surface cells = 0
Restoring velocity and flux fields after isoAdvector.
Liquid phase volume fraction = 1  Min(alpha1) = 1  Max(alpha1) = 1
Number of internal interface faces: 0
Smoothing alpha field 1 times for curvature calculation.
PIMPLE: iteration 2
Mesh Courant Number mean: 0 max: 0
amgSolver:  Solving for Voltage, Initial residual = 0, Final residual = 0, No Iterations 1
BiCGStab:  Solving for Ux, Initial residual = 0.00832395, Final residual = 1.72217e-10, No Iterations 1
BiCGStab:  Solving for Uy, Initial residual = 0.00132882, Final residual = 1.86649e-10, No Iterations 1
amgSolver:  Solving for pd, Initial residual = 7.82259e-06, Final residual = 2.86937e-09, No Iterations 8
Updating old interface data for additonal non orthogonal/PISO correctors.
time step continuity errors : sum local = 8.61935e-12, global = -5.05418e-13, cumulative = -1.36329e-13
amgSolver:  Solving for pd, Initial residual = 9.18751e-07, Final residual = 4.40327e-09, No Iterations 6
time step continuity errors : sum local = 1.32368e-11, global = 7.79573e-13, cumulative = 6.43245e-13
Setting up velocity and flux fields for isoAdvector.
Number of isoAdvector surface cells = 0
Restoring velocity and flux fields after isoAdvector.
Liquid phase volume fraction = 1  Min(alpha1) = 1  Max(alpha1) = 1
Number of internal interface faces: 0
Smoothing alpha field 1 times for curvature calculation.
ExecutionTime = 0.02 s  ClockTime = 0 s

Field pd min = 0 (303.797) max = 30104 (30104)
Field U magnitude min = 0 (0.474364) max = 1.0267 (1.0267)
Field alpha1 min = 1 (1) max = 1 (1)
Volume: new = 4 old = 4 change = 0 ratio = 0
Courant Number mean: 0.000343184 max: 0.00337327 velocity magnitude: 1.01325
Interface Courant Number mean: 0 max: 0
Time = 0.00133333

PIMPLE: iteration 1
Mesh Courant Number mean: 0 max: 0
amgSolver:  Solving for Voltage, Initial residual = 0, Final residual = 0, No Iterations 1
BiCGStab:  Solving for Ux, Initial residual = 0.962531, Final residual = 3.10695e-15, No Iterations 2
BiCGStab:  Solving for Uy, Initial residual = 0.328995, Final residual = 8.89958e-15, No Iterations 2
amgSolver:  Solving for pd, Initial residual = 0.0111456, Final residual = 7.16425e-09, No Iterations 13
Updating old interface data for additonal non orthogonal/PISO correctors.
time step continuity errors : sum local = 2.14119e-11, global = 1.18138e-12, cumulative = 1.82463e-12
amgSolver:  Solving for pd, Initial residual = 0.0103339, Final residual = 6.44335e-09, No Iterations 13
time step continuity errors : sum local = 2.54003e-12, global = -1.4102e-13, cumulative = 1.68361e-12
Setting up velocity and flux fields for isoAdvector.
Number of isoAdvector surface cells = 0
Restoring velocity and flux fields after isoAdvector.
Liquid phase volume fraction = 1  Min(alpha1) = 1  Max(alpha1) = 1
Number of internal interface faces: 0
Smoothing alpha field 1 times for curvature calculation.
PIMPLE: iteration 2
Mesh Courant Number mean: 0 max: 0
amgSolver:  Solving for Voltage, Initial residual = 0, Final residual = 0, No Iterations 1
BiCGStab:  Solving for Ux, Initial residual = 0.00961004, Final residual = 1.73098e-09, No Iterations 1
BiCGStab:  Solving for Uy, Initial residual = 0.0166796, Final residual = 1.92995e-09, No Iterations 1
amgSolver:  Solving for pd, Initial residual = 0.00164675, Final residual = 7.69466e-09, No Iterations 10
Updating old interface data for additonal non orthogonal/PISO correctors.
time step continuity errors : sum local = 4.91212e-13, global = -3.09251e-14, cumulative = 1.65268e-12
amgSolver:  Solving for pd, Initial residual = 0.000134327, Final residual = 2.95398e-09, No Iterations 9
time step continuity errors : sum local = 1.92092e-13, global = 1.89434e-14, cumulative = 1.67163e-12
Setting up velocity and flux fields for isoAdvector.
Number of isoAdvector surface cells = 0
Restoring velocity and flux fields after isoAdvector.
Liquid phase volume fraction = 1  Min(alpha1) = 1  Max(alpha1) = 1
Number of internal interface faces: 0
Smoothing alpha field 1 times for curvature calculation.
ExecutionTime = 0.03 s  ClockTime = 0 s

Field pd min = 0 (3.45772) max = 492.072 (492.072)
Field U magnitude min = 0 (0.549526) max = 1.15228 (1.15228)
Field alpha1 min = 1 (1) max = 1 (1)
Volume: new = 4 old = 4 change = 0 ratio = 0
Courant Number mean: 0.000344507 max: 0.00340942 velocity magnitude: 1.02493
Interface Courant Number mean: 0 max: 0
Time = 0.002

PIMPLE: iteration 1
Mesh Courant Number mean: 0 max: 0
amgSolver:  Solving for Voltage, Initial residual = 0, Final residual = 0, No Iterations 1
BiCGStab:  Solving for Ux, Initial residual = 0.17101, Final residual = 3.97566e-15, No Iterations 2
BiCGStab:  Solving for Uy, Initial residual = 0.191523, Final residual = 5.26632e-15, No Iterations 2
amgSolver:  Solving for pd, Initial residual = 0.132284, Final residual = 5.34938e-09, No Iterations 12
Updating old interface data for additonal non orthogonal/PISO correctors.
time step continuity errors : sum local = 3.24749e-13, global = 2.27886e-14, cumulative = 1.69441e-12
amgSolver:  Solving for pd, Initial residual = 0.0105751, Final residual = 2.62941e-09, No Iterations 11
time step continuity errors : sum local = 1.39416e-13, global = -1.66551e-14, cumulative = 1.67776e-12
Setting up velocity and flux fields for isoAdvector.
Number of isoAdvector surface cells = 0
Restoring velocity and flux fields after isoAdvector.
Liquid phase volume fraction = 1  Min(alpha1) = 1  Max(alpha1) = 1
Number of internal interface faces: 0
Smoothing alpha field 1 times for curvature calculation.
PIMPLE: iteration 2
Mesh Courant Number mean: 0 max: 0
amgSolver:  Solving for Voltage, Initial residual = 0, Final residual = 0, No Iterations 1
BiCGStab:  Solving for Ux, Initial residual = 0.000224488, Final residual = 2.40254e-11, No Iterations 1
BiCGStab:  Solving for Uy, Initial residual = 0.00100005, Final residual = 1.36242e-10, No Iterations 1
amgSolver:  Solving for pd, Initial residual = 0.000619007, Final residual = 9.58846e-09, No Iterations 6
Updating old interface data for additonal non orthogonal/PISO correctors.
time step continuity errors : sum local = 5.15005e-13, global = -4.25811e-14, cumulative = 1.63518e-12
amgSolver:  Solving for pd, Initial residual = 4.06012e-05, Final residual = 3.58738e-09, No Iterations 5
time step continuity errors : sum local = 1.92728e-13, global = 2.06776e-14, cumulative = 1.65586e-12
Setting up velocity and flux fields for isoAdvector.
Number of isoAdvector surface cells = 0
Restoring velocity and flux fields after isoAdvector.
Liquid phase volume fraction = 1  Min(alpha1) = 1  Max(alpha1) = 1
Number of internal interface faces: 0
Smoothing alpha field 1 times for curvature calculation.
ExecutionTime = 0.04 s  ClockTime = 0 s

Field pd min = 0 (3.17093) max = 359.723 (359.723)
Field U magnitude min = 0 (0.563486) max = 1.18701 (1.18701)
Field alpha1 min = 1 (1) max = 1 (1)
Volume: new = 4 old = 4 change = 0 ratio = 0
Courant Number mean: 0.000345696 max: 0.00344236 velocity magnitude: 1.03516
Interface Courant Number mean: 0 max: 0
Time = 0.00266667

PIMPLE: iteration 1
Mesh Courant Number mean: 0 max: 0
amgSolver:  Solving for Voltage, Initial residual = 0, Final residual = 0, No Iterations 1
BiCGStab:  Solving for Ux, Initial residual = 0.114431, Final residual = 2.57753e-15, No Iterations 2
BiCGStab:  Solving for Uy, Initial residual = 0.131434, Final residual = 3.78093e-15, No Iterations 2
amgSolver:  Solving for pd, Initial residual = 0.0732032, Final residual = 8.68079e-09, No Iterations 11
Updating old interface data for additonal non orthogonal/PISO correctors.
time step continuity errors : sum local = 4.48328e-13, global = 3.04076e-14, cumulative = 1.68626e-12
amgSolver:  Solving for pd, Initial residual = 0.00447981, Final residual = 3.28616e-09, No Iterations 10
time step continuity errors : sum local = 1.5434e-13, global = -1.81412e-14, cumulative = 1.66812e-12
Setting up velocity and flux fields for isoAdvector.
Number of isoAdvector surface cells = 0
Restoring velocity and flux fields after isoAdvector.
Liquid phase volume fraction = 1  Min(alpha1) = 1  Max(alpha1) = 1
Number of internal interface faces: 0
Smoothing alpha field 1 times for curvature calculation.
PIMPLE: iteration 2
Mesh Courant Number mean: 0 max: 0
amgSolver:  Solving for Voltage, Initial residual = 0, Final residual = 0, No Iterations 1
BiCGStab:  Solving for Ux, Initial residual = 0.000115541, Final residual = 1.42088e-11, No Iterations 1
BiCGStab:  Solving for Uy, Initial residual = 0.000207648, Final residual = 2.5857e-11, No Iterations 1
amgSolver:  Solving for pd, Initial residual = 0.000325801, Final residual = 9.07432e-09, No Iterations 6
Updating old interface data for additonal non orthogonal/PISO correctors.
time step continuity errors : sum local = 4.29914e-13, global = -3.32953e-14, cumulative = 1.63483e-12
amgSolver:  Solving for pd, Initial residual = 1.86596e-05, Final residual = 8.56236e-09, No Iterations 4
time step continuity errors : sum local = 4.05731e-13, global = 2.88249e-14, cumulative = 1.66365e-12
Setting up velocity and flux fields for isoAdvector.
Number of isoAdvector surface cells = 0
Restoring velocity and flux fields after isoAdvector.
Liquid phase volume fraction = 1  Min(alpha1) = 1  Max(alpha1) = 1
Number of internal interface faces: 0
Smoothing alpha field 1 times for curvature calculation.
ExecutionTime = 0.05 s  ClockTime = 0 s

Field pd min = 0 (2.92755) max = 318.239 (318.239)
Field U magnitude min = 0 (0.558175) max = 1.1993 (1.1993)
Field alpha1 min = 1 (1) max = 1 (1)
Volume: new = 4 old = 4 change = 0 ratio = 0
Courant Number mean: 0.000346781 max: 0.00347257 velocity magnitude: 1.04496
Interface Courant Number mean: 0 max: 0
Time = 0.00333333

PIMPLE: iteration 1
Mesh Courant Number mean: 0 max: 0
amgSolver:  Solving for Voltage, Initial residual = 0, Final residual = 0, No Iterations 1
BiCGStab:  Solving for Ux, Initial residual = 0.085391, Final residual = 1.80104e-15, No Iterations 2
BiCGStab:  Solving for Uy, Initial residual = 0.097188, Final residual = 2.92724e-15, No Iterations 2
amgSolver:  Solving for pd, Initial residual = 0.0477625, Final residual = 7.97276e-09, No Iterations 11
Updating old interface data for additonal non orthogonal/PISO correctors.
time step continuity errors : sum local = 3.67415e-13, global = 2.63565e-14, cumulative = 1.69001e-12
amgSolver:  Solving for pd, Initial residual = 0.0023242, Final residual = 2.61035e-09, No Iterations 10
time step continuity errors : sum local = 1.11033e-13, global = -1.75468e-14, cumulative = 1.67246e-12
Setting up velocity and flux fields for isoAdvector.
Number of isoAdvector surface cells = 0
Restoring velocity and flux fields after isoAdvector.
Liquid phase volume fraction = 1  Min(alpha1) = 1  Max(alpha1) = 1
Number of internal interface faces: 0
Smoothing alpha field 1 times for curvature calculation.
PIMPLE: iteration 2
Mesh Courant Number mean: 0 max: 0
amgSolver:  Solving for Voltage, Initial residual = 0, Final residual = 0, No Iterations 1
BiCGStab:  Solving for Ux, Initial residual = 7.45523e-05, Final residual = 9.71704e-12, No Iterations 1
BiCGStab:  Solving for Uy, Initial residual = 0.000243279, Final residual = 3.93492e-11, No Iterations 1
amgSolver:  Solving for pd, Initial residual = 0.000190041, Final residual = 6.85282e-09, No Iterations 6
Updating old interface data for additonal non orthogonal/PISO correctors.
time step continuity errors : sum local = 2.9367e-13, global = -2.43376e-14, cumulative = 1.64812e-12
amgSolver:  Solving for pd, Initial residual = 9.76147e-06, Final residual = 7.41237e-09, No Iterations 4
time step continuity errors : sum local = 3.17692e-13, global = 2.32988e-14, cumulative = 1.67142e-12
Setting up velocity and flux fields for isoAdvector.
Number of isoAdvector surface cells = 0
Restoring velocity and flux fields after isoAdvector.
Liquid phase volume fraction = 1  Min(alpha1) = 1  Max(alpha1) = 1
Number of internal interface faces: 0
Smoothing alpha field 1 times for curvature calculation.
ExecutionTime = 0.06 s  ClockTime = 0 s

Field pd min = 0 (2.72017) max = 290.973 (290.973)
Field U magnitude min = 0 (0.545717) max = 1.2049 (1.2049)
Field alpha1 min = 1 (1) max = 1 (1)
Volume: new = 4 old = 4 change = 0 ratio = 0
Courant Number mean: 0.000347765 max: 0.00350046 velocity magnitude: 1.05375
Interface Courant Number mean: 0 max: 0
Time = 0.004

PIMPLE: iteration 1
Mesh Courant Number mean: 0 max: 0
amgSolver:  Solving for Voltage, Initial residual = 0, Final residual = 0, No Iterations 1
BiCGStab:  Solving for Ux, Initial residual = 0.0670464, Final residual = 9.03173e-09, No Iterations 1
BiCGStab:  Solving for Uy, Initial residual = 0.0753155, Final residual = 2.35519e-15, No Iterations 2
amgSolver:  Solving for pd, Initial residual = 0.0376343, Final residual = 7.14995e-09, No Iterations 11
Updating old interface data for additonal non orthogonal/PISO correctors.
time step continuity errors : sum local = 2.99897e-13, global = 2.32858e-14, cumulative = 1.69471e-12
amgSolver:  Solving for pd, Initial residual = 0.00134807, Final residual = 8.54077e-09, No Iterations 9
time step continuity errors : sum local = 3.339e-13, global = -2.43382e-14, cumulative = 1.67037e-12
Setting up velocity and flux fields for isoAdvector.
Number of isoAdvector surface cells = 0
Restoring velocity and flux fields after isoAdvector.
Liquid phase volume fraction = 1  Min(alpha1) = 1  Max(alpha1) = 1
Number of internal interface faces: 0
Smoothing alpha field 1 times for curvature calculation.
PIMPLE: iteration 2
Mesh Courant Number mean: 0 max: 0
amgSolver:  Solving for Voltage, Initial residual = 0, Final residual = 0, No Iterations 1
BiCGStab:  Solving for Ux, Initial residual = 5.36193e-05, Final residual = 7.26015e-12, No Iterations 1
BiCGStab:  Solving for Uy, Initial residual = 0.000158196, Final residual = 2.39776e-11, No Iterations 1
amgSolver:  Solving for pd, Initial residual = 0.000135616, Final residual = 5.78353e-09, No Iterations 6
Updating old interface data for additonal non orthogonal/PISO correctors.
time step continuity errors : sum local = 2.27614e-13, global = -2.12454e-14, cumulative = 1.64912e-12
amgSolver:  Solving for pd, Initial residual = 5.65451e-06, Final residual = 6.51062e-09, No Iterations 4
time step continuity errors : sum local = 2.56258e-13, global = 2.11704e-14, cumulative = 1.67029e-12
Setting up velocity and flux fields for isoAdvector.
Number of isoAdvector surface cells = 0
Restoring velocity and flux fields after isoAdvector.
Liquid phase volume fraction = 1  Min(alpha1) = 1  Max(alpha1) = 1
Number of internal interface faces: 0
Smoothing alpha field 1 times for curvature calculation.
ExecutionTime = 0.06 s  ClockTime = 0 s

Field pd min = 0 (2.54274) max = 269.851 (269.851)
Field U magnitude min = 0 (0.530776) max = 1.20817 (1.20817)
Field alpha1 min = 1 (1) max = 1 (1)
Volume: new = 4 old = 4 change = 0 ratio = 0
Courant Number mean: 0.000348663 max: 0.00352636 velocity magnitude: 1.06162
Interface Courant Number mean: 0 max: 0
Time = 0.00466667

PIMPLE: iteration 1
Mesh Courant Number mean: 0 max: 0
amgSolver:  Solving for Voltage, Initial residual = 0, Final residual = 0, No Iterations 1
BiCGStab:  Solving for Ux, Initial residual = 0.053993, Final residual = 6.93597e-09, No Iterations 1
BiCGStab:  Solving for Uy, Initial residual = 0.0605924, Final residual = 1.94761e-15, No Iterations 2
amgSolver:  Solving for pd, Initial residual = 0.0297497, Final residual = 6.42303e-09, No Iterations 11
Updating old interface data for additonal non orthogonal/PISO correctors.
time step continuity errors : sum local = 2.48503e-13, global = 2.1196e-14, cumulative = 1.69149e-12
amgSolver:  Solving for pd, Initial residual = 0.000892188, Final residual = 6.99294e-09, No Iterations 9
time step continuity errors : sum local = 2.54195e-13, global = -2.09471e-14, cumulative = 1.67054e-12
Setting up velocity and flux fields for isoAdvector.
Number of isoAdvector surface cells = 0
Restoring velocity and flux fields after isoAdvector.
Liquid phase volume fraction = 1  Min(alpha1) = 1  Max(alpha1) = 1
Number of internal interface faces: 0
Smoothing alpha field 1 times for curvature calculation.
PIMPLE: iteration 2
Mesh Courant Number mean: 0 max: 0
amgSolver:  Solving for Voltage, Initial residual = 0, Final residual = 0, No Iterations 1
BiCGStab:  Solving for Ux, Initial residual = 4.09032e-05, Final residual = 5.89041e-12, No Iterations 1
BiCGStab:  Solving for Uy, Initial residual = 7.0116e-05, Final residual = 9.9527e-12, No Iterations 1
amgSolver:  Solving for pd, Initial residual = 0.000107494, Final residual = 4.81831e-09, No Iterations 6
Updating old interface data for additonal non orthogonal/PISO correctors.
time step continuity errors : sum local = 1.76187e-13, global = -1.93123e-14, cumulative = 1.65123e-12
amgSolver:  Solving for pd, Initial residual = 3.82255e-06, Final residual = 5.71033e-09, No Iterations 4
time step continuity errors : sum local = 2.08824e-13, global = 1.9757e-14, cumulative = 1.67099e-12
Setting up velocity and flux fields for isoAdvector.
Number of isoAdvector surface cells = 0
Restoring velocity and flux fields after isoAdvector.
Liquid phase volume fraction = 1  Min(alpha1) = 1  Max(alpha1) = 1
Number of internal interface faces: 0
Smoothing alpha field 1 times for curvature calculation.
ExecutionTime = 0.06 s  ClockTime = 0 s

Field pd min = 0 (2.39027) max = 252.54 (252.54)
Field U magnitude min = 0 (0.499271) max = 1.21008 (1.21008)
Field alpha1 min = 1 (1) max = 1 (1)
Volume: new = 4 old = 4 change = 0 ratio = 0
Courant Number mean: 0.000349488 max: 0.00355056 velocity magnitude: 1.06867
Interface Courant Number mean: 0 max: 0
Time = 0.00533333

PIMPLE: iteration 1
Mesh Courant Number mean: 0 max: 0
amgSolver:  Solving for Voltage, Initial residual = 0, Final residual = 0, No Iterations 1
BiCGStab:  Solving for Ux, Initial residual = 0.0449183, Final residual = 5.39724e-09, No Iterations 1
BiCGStab:  Solving for Uy, Initial residual = 0.0501434, Final residual = 9.02026e-09, No Iterations 1
amgSolver:  Solving for pd, Initial residual = 0.0238708, Final residual = 5.76007e-09, No Iterations 11
Updating old interface data for additonal non orthogonal/PISO correctors.
time step continuity errors : sum local = 2.0767e-13, global = 1.9762e-14, cumulative = 1.69075e-12
amgSolver:  Solving for pd, Initial residual = 0.000662764, Final residual = 5.93022e-09, No Iterations 9
time step continuity errors : sum local = 2.02189e-13, global = -1.92026e-14, cumulative = 1.67155e-12
Setting up velocity and flux fields for isoAdvector.
Number of isoAdvector surface cells = 0
Restoring velocity and flux fields after isoAdvector.
Liquid phase volume fraction = 1  Min(alpha1) = 1  Max(alpha1) = 1
Number of internal interface faces: 0
Smoothing alpha field 1 times for curvature calculation.
PIMPLE: iteration 2
Mesh Courant Number mean: 0 max: 0
amgSolver:  Solving for Voltage, Initial residual = 0, Final residual = 0, No Iterations 1
BiCGStab:  Solving for Ux, Initial residual = 3.30334e-05, Final residual = 4.90167e-12, No Iterations 1
BiCGStab:  Solving for Uy, Initial residual = 4.18368e-05, Final residual = 6.01442e-12, No Iterations 1
amgSolver:  Solving for pd, Initial residual = 8.1373e-05, Final residual = 4.13046e-09, No Iterations 6
Updating old interface data for additonal non orthogonal/PISO correctors.
time step continuity errors : sum local = 1.41587e-13, global = -1.84394e-14, cumulative = 1.65311e-12
amgSolver:  Solving for pd, Initial residual = 2.82548e-06, Final residual = 4.96434e-09, No Iterations 4
time step continuity errors : sum local = 1.70186e-13, global = 1.89682e-14, cumulative = 1.67208e-12
Setting up velocity and flux fields for isoAdvector.
Number of isoAdvector surface cells = 0
Restoring velocity and flux fields after isoAdvector.
Liquid phase volume fraction = 1  Min(alpha1) = 1  Max(alpha1) = 1
Number of internal interface faces: 0
Smoothing alpha field 1 times for curvature calculation.
ExecutionTime = 0.07 s  ClockTime = 0 s

Field pd min = 0 (2.25867) max = 237.983 (237.983)
Field U magnitude min = 0 (0.468385) max = 1.21126 (1.21126)
Field alpha1 min = 1 (1) max = 1 (1)
Volume: new = 4 old = 4 change = 0 ratio = 0
Courant Number mean: 0.00035025 max: 0.00357327 velocity magnitude: 1.07497
Interface Courant Number mean: 0 max: 0
Time = 0.006

PIMPLE: iteration 1
Mesh Courant Number mean: 0 max: 0
amgSolver:  Solving for Voltage, Initial residual = 0, Final residual = 0, No Iterations 1
BiCGStab:  Solving for Ux, Initial residual = 0.0380363, Final residual = 4.25222e-09, No Iterations 1
BiCGStab:  Solving for Uy, Initial residual = 0.0423778, Final residual = 7.77981e-09, No Iterations 1
amgSolver:  Solving for pd, Initial residual = 0.020915, Final residual = 5.1642e-09, No Iterations 11
Updating old interface data for additonal non orthogonal/PISO correctors.
time step continuity errors : sum local = 1.74825e-13, global = 1.88013e-14, cumulative = 1.69088e-12
amgSolver:  Solving for pd, Initial residual = 0.000509727, Final residual = 5.14332e-09, No Iterations 9
time step continuity errors : sum local = 1.65476e-13, global = -1.82863e-14, cumulative = 1.67259e-12
Setting up velocity and flux fields for isoAdvector.
Number of isoAdvector surface cells = 0
Restoring velocity and flux fields after isoAdvector.
Liquid phase volume fraction = 1  Min(alpha1) = 1  Max(alpha1) = 1
Number of internal interface faces: 0
Smoothing alpha field 1 times for curvature calculation.
PIMPLE: iteration 2
Mesh Courant Number mean: 0 max: 0
amgSolver:  Solving for Voltage, Initial residual = 0, Final residual = 0, No Iterations 1
BiCGStab:  Solving for Ux, Initial residual = 2.75155e-05, Final residual = 4.1306e-12, No Iterations 1