/*--------------------------------*- C++ -*----------------------------------*\
| =========                 |                                                 |
| \\      /  F ield         | foam-extend: Open Source CFD                    |
|  \\    /   O peration     | Version:     5.0                                |
|   \\  /    A nd           | Web:         http://www.foam-extend.org         |
|    \\/     M anipulation  | For copyright notice see file Copyright         |
\*---------------------------------------------------------------------------*/
FoamFile
{
    version     2.0;
    format      ascii;
    class       dictionary;
    object      fvSchemes;
}
// * * * * * * * * * * * * * * * * * * * * * * * * * * * * * * * * * * * * * //

ddtSchemes
{
    default Euler;
}

gradSchemes
{
    default         Gauss linear;
    grad(pd)        interfaceGauss linear;
    snGradCorr(pd)  interfaceGauss linear;
}

divSchemes
{
    div(phi,U)  Gauss linearUpwindV grad(U);
    div(phi,alpha)  Gauss vanLeer01;
    div(phirb,alpha) Gauss vofCompression;
    div(((rho*nuEff)*dev2(T(grad(U))))) Gauss linear;
    div(phi,k) Gauss upwind;
    div(phi,epsilon) Gauss upwind;
}

laplacianSchemes
{
    default         Gauss linear corrected;
    laplacian(rAU,pd) interfaceGauss linear interfaceCorrected;
}

interpolationSchemes
{
    default         linear;
}

snGradSchemes
{
    default         corrected;
    snGrad(pd)      interfaceCorrected;
}

// ************************************************************************* //
/*--------------------------------*- C++ -*----------------------------------*\
| =========                 |                                                 |
| \\      /  F ield         | foam-extend: Open Source CFD                    |
|  \\    /   O peration     | Version:     5.0                                |
|   \\  /    A nd           | Web:         http://www.foam-extend.org         |
|    \\/     M anipulation  | For copyright notice see file Copyright         |
\*---------------------------------------------------------------------------*/
FoamFile
{
    version     2.0;
    format      ascii;
    class       dictionary;
    object      fvSolution;
}
// * * * * * * * * * * * * * * * * * * * * * * * * * * * * * * * * * * * * * //

solvers
{
    "p|pd|pdFinal|Voltage"
    {
        solver            amgSolver;
        cycle             V-cycle;
//        policy            selectionAMG;
        policy            cluster;
        nPreSweeps        1;
        nPostSweeps       3;
        groupSize         8;
        minCoarseEqns     4;
        nMaxLevels        100;
        scale             on;
        smoother          ILUC0;

        minIter           1;
        maxIter           20;
        tolerance         1e-8;
        relTol            0.0;
    }
    "(U|UFinal)"
    {
        solver            BiCGStab;
        preconditioner    ILU0;

        minIter           1;
        maxIter           500;
        tolerance         1e-8;
        relTol            0.0;
    }
    "k|epsilon"
    {
        solver          BiCGStab;
        preconditioner    ILU0;

        minIter           1;
        maxIter           500;
        tolerance         1e-8;
        relTol            0.0;
    }
}

PISO
{
    cAlpha          1;
}
PIMPLE
{
    nOuterCorrectors    2;
    nCorrectors         2;
    nNonOrthogonalCorrectors 0;
    pdRefCell 0;
    pdRefValue 0;
}

relaxationFactors
{
    equations
    {
        U        1; // 0.8
        UFinal   1;
    }
    fields
    {
        pd       1;
    }
}

isoAdvector
{
    // Note: use full Crank-Nicolson when topo changes are not occuring,
    // otherwise the code resorts to Euler implicit
//    CrankNicolsonCoeff 0.5;

    // Euler implicit
    CrankNicolsonCoeff 1;

    gradAlphaNormal true;

    alphaFluxTolerance 1e-12; // 10*SMALL by default

    // Determines which cells are classified as surface cells
    vof2IsoTol         1e-8; // 1e-8 by default

    clipAlphaTol 1e-6;
    nAlphaBounds 0;
    snapAlpha   false; // true
    extrapolateVelocity yes;
    secondOrderExtrapolation no;
}

// ************************************************************************* //
/*---------------------------------------------------------------------------*\
| =========                 |                                                 |
| \\      /  F ield         | foam-extend: Open Source CFD                    |
|  \\    /   O peration     | Version:     5.0                                |
|   \\  /    A nd           | Web:         http://www.foam-extend.org         |
|    \\/     M anipulation  | For copyright notice see file Copyright         |
\*---------------------------------------------------------------------------*/
Build  : 5.0-73c2a3d539c2
Exec   : lmbFoam
Date   : Jul 10 2023
Time   : 13:30:17
Host   : "ojm40-OMEN"
PID    : 335160
CtrlDict : "/home/ojm40/foam/ojm40-5.0/work/liquidMetalBattery/run/hartmannLMB/system/controlDict"
Case   : /home/ojm40/foam/ojm40-5.0/work/liquidMetalBattery/run/hartmannLMB
nProcs : 1
sigFpe : Enabling floating point exception trapping (FOAM_SIGFPE).
allowSystemOperations : Disallowing user-supplied system call operations

// * * * * * * * * * * * * * * * * * * * * * * * * * * * * * * * * * * * * * //
Create time

Create dynamic mesh for time = 0

--> FOAM Warning : 
    From function void* Foam::dlOpen(const Foam::fileName&, bool)
    in file POSIX.C at line 1204
    dlopen error : libmesquiteMotionSolver.so: cannot open shared object file: No such file or directory
--> FOAM Warning : 
    From function bool Foam::dlLibraryTable::open(const Foam::fileName&, bool)
    in file db/dynamicLibrary/dlLibraryTable/dlLibraryTable.C at line 97
    could not load "libmesquiteMotionSolver.so"
--> FOAM Warning : 
    From function dynamicFvMesh::New(const IOobject& io)
    in file dynamicFvMesh/newDynamicFvMesh.C at line 46
    Loading of dynamic mesh library libmesquiteMotionSolver.so unsuccesful. Some dynamic mesh  methods may not be  available
Selecting dynamicFvMesh staticFvMesh

PIMPLE: no residual control data found. Calculations will employ 2 corrector loops


Reading g
Reading field pd

Reading field alpha1

Reading field U

Reading/calculating face flux field phi

Reading transportProperties

Selecting incompressible transport model Newtonian
Selecting incompressible transport model Newtonian
Calculating field g.h

Reading field p

Selecting turbulence model type RASModel
Selecting RAS turbulence model kEpsilon
kEpsilonCoeffs
{
    Cmu             0.09;
    C1              1.44;
    C2              1.92;
    sigmaEps        1.3;
}

Number of internal interface faces: 0
Smoothing alpha field 1 times for curvature calculation.
amgSolver:  Solving for pd, Initial residual = 1, Final residual = 2.10464e-07, No Iterations 20
Reading field Electric Potential

Courant Number mean: 0.000350877 max: 0.00333333 velocity magnitude: 1

Starting time loop

Creating minMaxField for field pd
Creating minMaxField for field U
Creating minMaxField for field alpha1
Volume: new = 4 old = 4 change = 0 ratio = 0
Courant Number mean: 0.000350877 max: 0.00333333 velocity magnitude: 1
Interface Courant Number mean: 0 max: 0
Time = 0.00133333

PIMPLE: iteration 1
Mesh Courant Number mean: 0 max: 0
amgSolver:  Solving for Voltage, Initial residual = 0, Final residual = 0, No Iterations 1
BiCGStab:  Solving for Ux, Initial residual = 1, Final residual = 3.59816e-09, No Iterations 1
BiCGStab:  Solving for Uy, Initial residual = 1, Final residual = 1.76784e-16, No Iterations 2
amgSolver:  Solving for pd, Initial residual = 0.00086778, Final residual = 5.13203e-09, No Iterations 14
Updating old interface data for additonal non orthogonal/PISO correctors.
time step continuity errors : sum local = 1.65242e-11, global = -7.06892e-12, cumulative = -7.06892e-12
amgSolver:  Solving for pd, Initial residual = 2.943e-05, Final residual = 9.69391e-09, No Iterations 10
time step continuity errors : sum local = 3.16448e-11, global = 1.32255e-11, cumulative = 6.15659e-12
Setting up velocity and flux fields for isoAdvector.
Number of isoAdvector surface cells = 0
Restoring velocity and flux fields after isoAdvector.
Liquid phase volume fraction = 1  Min(alpha1) = 1  Max(alpha1) = 1
Number of internal interface faces: 0
Smoothing alpha field 1 times for curvature calculation.
PIMPLE: iteration 2
Mesh Courant Number mean: 0 max: 0
amgSolver:  Solving for Voltage, Initial residual = 0, Final residual = 0, No Iterations 1
BiCGStab:  Solving for Ux, Initial residual = 0.0130638, Final residual = 4.32507e-11, No Iterations 1
BiCGStab:  Solving for Uy, Initial residual = 0.000501965, Final residual = 7.62299e-12, No Iterations 1
amgSolver:  Solving for pd, Initial residual = 2.70319e-05, Final residual = 9.00442e-09, No Iterations 11
Updating old interface data for additonal non orthogonal/PISO correctors.
time step continuity errors : sum local = 2.93704e-11, global = 1.32434e-12, cumulative = 7.48093e-12
amgSolver:  Solving for pd, Initial residual = 1.71461e-06, Final residual = 5.99805e-09, No Iterations 8
time step continuity errors : sum local = 1.95909e-11, global = 8.07357e-12, cumulative = 1.55545e-11
Setting up velocity and flux fields for isoAdvector.
Number of isoAdvector surface cells = 0
Restoring velocity and flux fields after isoAdvector.
Liquid phase volume fraction = 1  Min(alpha1) = 1  Max(alpha1) = 1
Number of internal interface faces: 0
Smoothing alpha field 1 times for curvature calculation.
ExecutionTime = 0.01 s  ClockTime = 0 s

Field pd min = 0 (304.205) max = 14918 (14918)
Field U magnitude min = 0 (0.487988) max = 1.0184 (1.0184)
Field alpha1 min = 1 (1) max = 1 (1)
Volume: new = 4 old = 4 change = 0 ratio = 0
Courant Number mean: 0.000352335 max: 0.00337556 velocity magnitude: 1.01267
Interface Courant Number mean: 0 max: 0
Time = 0.00266667

PIMPLE: iteration 1
Mesh Courant Number mean: 0 max: 0
amgSolver:  Solving for Voltage, Initial residual = 0, Final residual = 0, No Iterations 1
BiCGStab:  Solving for Ux, Initial residual = 0.951248, Final residual = 3.17128e-09, No Iterations 1
BiCGStab:  Solving for Uy, Initial residual = 0.329014, Final residual = 5.2682e-09, No Iterations 1
amgSolver:  Solving for pd, Initial residual = 0.0204719, Final residual = 4.52462e-09, No Iterations 20
Updating old interface data for additonal non orthogonal/PISO correctors.
time step continuity errors : sum local = 1.4625e-11, global = 6.31217e-12, cumulative = 2.18667e-11
amgSolver:  Solving for pd, Initial residual = 0.0187963, Final residual = 9.99013e-09, No Iterations 19
time step continuity errors : sum local = 2.22767e-12, global = 8.0554e-14, cumulative = 2.19472e-11
Setting up velocity and flux fields for isoAdvector.
Number of isoAdvector surface cells = 0
Restoring velocity and flux fields after isoAdvector.
Liquid phase volume fraction = 1  Min(alpha1) = 1  Max(alpha1) = 1
Number of internal interface faces: 0
Smoothing alpha field 1 times for curvature calculation.
PIMPLE: iteration 2
Mesh Courant Number mean: 0 max: 0
amgSolver:  Solving for Voltage, Initial residual = 0, Final residual = 0, No Iterations 1
BiCGStab:  Solving for Ux, Initial residual = 0.00333854, Final residual = 5.49443e-11, No Iterations 1
BiCGStab:  Solving for Uy, Initial residual = 0.00727096, Final residual = 9.69304e-11, No Iterations 1
amgSolver:  Solving for pd, Initial residual = 0.000671406, Final residual = 5.51632e-09, No Iterations 13
Updating old interface data for additonal non orthogonal/PISO correctors.
time step continuity errors : sum local = 5.95524e-13, global = -2.67175e-13, cumulative = 2.16801e-11
amgSolver:  Solving for pd, Initial residual = 2.75254e-05, Final residual = 7.53776e-09, No Iterations 9
time step continuity errors : sum local = 8.18169e-13, global = 3.58038e-13, cumulative = 2.20381e-11
Setting up velocity and flux fields for isoAdvector.
Number of isoAdvector surface cells = 0
Restoring velocity and flux fields after isoAdvector.
Liquid phase volume fraction = 1  Min(alpha1) = 1  Max(alpha1) = 1
Number of internal interface faces: 0
Smoothing alpha field 1 times for curvature calculation.
ExecutionTime = 0.02 s  ClockTime = 0 s

Field pd min = 0 (4.02741) max = 345.23 (345.23)
Field U magnitude min = 0 (0.586383) max = 1.14887 (1.14887)
Field alpha1 min = 1 (1) max = 1 (1)
Volume: new = 4 old = 4 change = 0 ratio = 0
Courant Number mean: 0.000353699 max: 0.00341575 velocity magnitude: 1.02472
Interface Courant Number mean: 0 max: 0
Time = 0.004

PIMPLE: iteration 1
Mesh Courant Number mean: 0 max: 0
amgSolver:  Solving for Voltage, Initial residual = 0, Final residual = 0, No Iterations 1
BiCGStab:  Solving for Ux, Initial residual = 0.18623, Final residual = 2.56467e-09, No Iterations 1
BiCGStab:  Solving for Uy, Initial residual = 0.200892, Final residual = 3.15387e-09, No Iterations 1
amgSolver:  Solving for pd, Initial residual = 0.160949, Final residual = 6.50249e-09, No Iterations 16
Updating old interface data for additonal non orthogonal/PISO correctors.
time step continuity errors : sum local = 6.51756e-13, global = 2.90252e-13, cumulative = 2.23283e-11
amgSolver:  Solving for pd, Initial residual = 0.00666184, Final residual = 5.64528e-09, No Iterations 13
time step continuity errors : sum local = 4.96563e-13, global = -3.64702e-14, cumulative = 2.22919e-11
Setting up velocity and flux fields for isoAdvector.
Number of isoAdvector surface cells = 0
Restoring velocity and flux fields after isoAdvector.
Liquid phase volume fraction = 1  Min(alpha1) = 1  Max(alpha1) = 1
Number of internal interface faces: 0
Smoothing alpha field 1 times for curvature calculation.
PIMPLE: iteration 2
Mesh Courant Number mean: 0 max: 0
amgSolver:  Solving for Voltage, Initial residual = 0, Final residual = 0, No Iterations 1
BiCGStab:  Solving for Ux, Initial residual = 0.00022774, Final residual = 3.029e-12, No Iterations 1
BiCGStab:  Solving for Uy, Initial residual = 0.000552566, Final residual = 8.66541e-12, No Iterations 1
amgSolver:  Solving for pd, Initial residual = 0.000292845, Final residual = 6.93083e-09, No Iterations 7
Updating old interface data for additonal non orthogonal/PISO correctors.
time step continuity errors : sum local = 6.13214e-13, global = -5.82773e-14, cumulative = 2.22336e-11
amgSolver:  Solving for pd, Initial residual = 9.3124e-06, Final residual = 6.44016e-09, No Iterations 4
time step continuity errors : sum local = 5.69885e-13, global = 1.65079e-13, cumulative = 2.23987e-11
Setting up velocity and flux fields for isoAdvector.
Number of isoAdvector surface cells = 0
Restoring velocity and flux fields after isoAdvector.
Liquid phase volume fraction = 1  Min(alpha1) = 1  Max(alpha1) = 1
Number of internal interface faces: 0
Smoothing alpha field 1 times for curvature calculation.
ExecutionTime = 0.02 s  ClockTime = 0 s

Field pd min = 0 (3.86482) max = 229.974 (229.974)
Field U magnitude min = 0 (0.621133) max = 1.18778 (1.18778)
Field alpha1 min = 1 (1) max = 1 (1)
Volume: new = 4 old = 4 change = 0 ratio = 0
Courant Number mean: 0.000355015 max: 0.00345408 velocity magnitude: 1.03623
Interface Courant Number mean: 0 max: 0
Time = 0.00533333

PIMPLE: iteration 1
Mesh Courant Number mean: 0 max: 0
amgSolver:  Solving for Voltage, Initial residual = 0, Final residual = 0, No Iterations 1
BiCGStab:  Solving for Ux, Initial residual = 0.119247, Final residual = 1.67422e-09, No Iterations 1
BiCGStab:  Solving for Uy, Initial residual = 0.144621, Final residual = 2.27646e-09, No Iterations 1
amgSolver:  Solving for pd, Initial residual = 0.0920973, Final residual = 6.68177e-09, No Iterations 14
Updating old interface data for additonal non orthogonal/PISO correctors.
time step continuity errors : sum local = 5.63827e-13, global = 2.54102e-13, cumulative = 2.26528e-11
amgSolver:  Solving for pd, Initial residual = 0.00281338, Final residual = 5.00196e-09, No Iterations 12
time step continuity errors : sum local = 3.93772e-13, global = -5.40415e-14, cumulative = 2.25987e-11
Setting up velocity and flux fields for isoAdvector.
Number of isoAdvector surface cells = 0
Restoring velocity and flux fields after isoAdvector.
Liquid phase volume fraction = 1  Min(alpha1) = 1  Max(alpha1) = 1
Number of internal interface faces: 0
Smoothing alpha field 1 times for curvature calculation.
PIMPLE: iteration 2
Mesh Courant Number mean: 0 max: 0
amgSolver:  Solving for Voltage, Initial residual = 0, Final residual = 0, No Iterations 1
BiCGStab:  Solving for Ux, Initial residual = 0.000148444, Final residual = 2.04448e-12, No Iterations 1
BiCGStab:  Solving for Uy, Initial residual = 0.000131696, Final residual = 2.12555e-12, No Iterations 1
amgSolver:  Solving for pd, Initial residual = 0.000161427, Final residual = 5.92802e-09, No Iterations 7
Updating old interface data for additonal non orthogonal/PISO correctors.
time step continuity errors : sum local = 4.67823e-13, global = -7.06322e-14, cumulative = 2.25281e-11
amgSolver:  Solving for pd, Initial residual = 4.88256e-06, Final residual = 4.79884e-09, No Iterations 4
time step continuity errors : sum local = 3.78751e-13, global = 6.4455e-14, cumulative = 2.25926e-11
Setting up velocity and flux fields for isoAdvector.
Number of isoAdvector surface cells = 0
Restoring velocity and flux fields after isoAdvector.
Liquid phase volume fraction = 1  Min(alpha1) = 1  Max(alpha1) = 1
Number of internal interface faces: 0
Smoothing alpha field 1 times for curvature calculation.
ExecutionTime = 0.02 s  ClockTime = 0 s

Field pd min = 0 (3.71599) max = 205.037 (205.037)
Field U magnitude min = 0 (0.633126) max = 1.20427 (1.20427)
Field alpha1 min = 1 (1) max = 1 (1)
Volume: new = 4 old = 4 change = 0 ratio = 0
Courant Number mean: 0.000356289 max: 0.00349071 velocity magnitude: 1.04721
Interface Courant Number mean: 0 max: 0
Time = 0.00666667

PIMPLE: iteration 1
Mesh Courant Number mean: 0 max: 0
amgSolver:  Solving for Voltage, Initial residual = 0, Final residual = 0, No Iterations 1
BiCGStab:  Solving for Ux, Initial residual = 0.0873541, Final residual = 1.23224e-09, No Iterations 1
BiCGStab:  Solving for Uy, Initial residual = 0.109562, Final residual = 1.74435e-09, No Iterations 1
amgSolver:  Solving for pd, Initial residual = 0.0578432, Final residual = 5.12131e-09, No Iterations 15
Updating old interface data for additonal non orthogonal/PISO correctors.
time step continuity errors : sum local = 3.91108e-13, global = 1.82825e-13, cumulative = 2.27754e-11
amgSolver:  Solving for pd, Initial residual = 0.00148162, Final residual = 5.18716e-09, No Iterations 12
time step continuity errors : sum local = 3.75302e-13, global = -5.72633e-14, cumulative = 2.27181e-11
Setting up velocity and flux fields for isoAdvector.
Number of isoAdvector surface cells = 0
Restoring velocity and flux fields after isoAdvector.
Liquid phase volume fraction = 1  Min(alpha1) = 1  Max(alpha1) = 1
Number of internal interface faces: 0
Smoothing alpha field 1 times for curvature calculation.
PIMPLE: iteration 2
Mesh Courant Number mean: 0 max: 0
amgSolver:  Solving for Voltage, Initial residual = 0, Final residual = 0, No Iterations 1
BiCGStab:  Solving for Ux, Initial residual = 0.000108195, Final residual = 1.52047e-12, No Iterations 1
BiCGStab:  Solving for Uy, Initial residual = 0.000218466, Final residual = 4.41909e-12, No Iterations 1
amgSolver:  Solving for pd, Initial residual = 0.000110118, Final residual = 4.00704e-09, No Iterations 7
Updating old interface data for additonal non orthogonal/PISO correctors.
time step continuity errors : sum local = 2.90474e-13, global = -1.28668e-13, cumulative = 2.25895e-11
amgSolver:  Solving for pd, Initial residual = 2.6798e-06, Final residual = 4.69625e-09, No Iterations 4
time step continuity errors : sum local = 3.40465e-13, global = 7.02501e-14, cumulative = 2.26597e-11
Setting up velocity and flux fields for isoAdvector.
Number of isoAdvector surface cells = 0
Restoring velocity and flux fields after isoAdvector.
Liquid phase volume fraction = 1  Min(alpha1) = 1  Max(alpha1) = 1
Number of internal interface faces: 0
Smoothing alpha field 1 times for curvature calculation.
ExecutionTime = 0.03 s  ClockTime = 0 s

Field pd min = 0 (3.57963) max = 191.767 (191.767)
Field U magnitude min = 0 (0.634625) max = 1.21322 (1.21322)
Field alpha1 min = 1 (1) max = 1 (1)
Volume: new = 4 old = 4 change = 0 ratio = 0
Courant Number mean: 0.000357501 max: 0.00352577 velocity magnitude: 1.05773
Interface Courant Number mean: 0 max: 0
Time = 0.008

PIMPLE: iteration 1
Mesh Courant Number mean: 0 max: 0
amgSolver:  Solving for Voltage, Initial residual = 0, Final residual = 0, No Iterations 1
BiCGStab:  Solving for Ux, Initial residual = 0.0674432, Final residual = 9.71257e-10, No Iterations 1
BiCGStab:  Solving for Uy, Initial residual = 0.0861988, Final residual = 1.3919e-09, No Iterations 1
amgSolver:  Solving for pd, Initial residual = 0.0454924, Final residual = 6.36207e-09, No Iterations 15
Updating old interface data for additonal non orthogonal/PISO correctors.
time step continuity errors : sum local = 4.49859e-13, global = 2.06844e-13, cumulative = 2.28666e-11
amgSolver:  Solving for pd, Initial residual = 0.00084429, Final residual = 9.6584e-09, No Iterations 11
time step continuity errors : sum local = 6.52608e-13, global = -2.90645e-13, cumulative = 2.25759e-11
Setting up velocity and flux fields for isoAdvector.
Number of isoAdvector surface cells = 0
Restoring velocity and flux fields after isoAdvector.
Liquid phase volume fraction = 1  Min(alpha1) = 1  Max(alpha1) = 1
Number of internal interface faces: 0
Smoothing alpha field 1 times for curvature calculation.
PIMPLE: iteration 2
Mesh Courant Number mean: 0 max: 0
amgSolver:  Solving for Voltage, Initial residual = 0, Final residual = 0, No Iterations 1
BiCGStab:  Solving for Ux, Initial residual = 8.35837e-05, Final residual = 1.23182e-12, No Iterations 1
BiCGStab:  Solving for Uy, Initial residual = 5.02007e-05, Final residual = 9.03024e-13, No Iterations 1
amgSolver:  Solving for pd, Initial residual = 9.64675e-05, Final residual = 4.09103e-09, No Iterations 7
Updating old interface data for additonal non orthogonal/PISO correctors.
time step continuity errors : sum local = 2.76886e-13, global = -1.28366e-13, cumulative = 2.24475e-11
amgSolver:  Solving for pd, Initial residual = 1.99256e-06, Final residual = 4.33423e-09, No Iterations 4
time step continuity errors : sum local = 2.93369e-13, global = 7.77645e-14, cumulative = 2.25253e-11
Setting up velocity and flux fields for isoAdvector.
Number of isoAdvector surface cells = 0
Restoring velocity and flux fields after isoAdvector.
Liquid phase volume fraction = 1  Min(alpha1) = 1  Max(alpha1) = 1
Number of internal interface faces: 0
Smoothing alpha field 1 times for curvature calculation.
ExecutionTime = 0.03 s  ClockTime = 0 s

Field pd min = 0 (3.45458) max = 182.325 (182.325)
Field U magnitude min = 0 (0.630701) max = 1.21911 (1.21911)
Field alpha1 min = 1 (1) max = 1 (1)
Volume: new = 4 old = 4 change = 0 ratio = 0
Courant Number mean: 0.000358646 max: 0.00355939 velocity magnitude: 1.06787
Interface Courant Number mean: 0 max: 0
Time = 0.00933333

PIMPLE: iteration 1
Mesh Courant Number mean: 0 max: 0
amgSolver:  Solving for Voltage, Initial residual = 0, Final residual = 0, No Iterations 1
BiCGStab:  Solving for Ux, Initial residual = 0.0548582, Final residual = 7.96705e-10, No Iterations 1
BiCGStab:  Solving for Uy, Initial residual = 0.0698221, Final residual = 1.14502e-09, No Iterations 1
amgSolver:  Solving for pd, Initial residual = 0.0358346, Final residual = 6.51737e-09, No Iterations 15
Updating old interface data for additonal non orthogonal/PISO correctors.
time step continuity errors : sum local = 4.32399e-13, global = 1.9969e-13, cumulative = 2.2725e-11
amgSolver:  Solving for pd, Initial residual = 0.00054007, Final residual = 7.52097e-09, No Iterations 11
time step continuity errors : sum local = 4.79507e-13, global = -2.18606e-13, cumulative = 2.25064e-11
Setting up velocity and flux fields for isoAdvector.
Number of isoAdvector surface cells = 0
Restoring velocity and flux fields after isoAdvector.
Liquid phase volume fraction = 1  Min(alpha1) = 1  Max(alpha1) = 1
Number of internal interface faces: 0
Smoothing alpha field 1 times for curvature calculation.
PIMPLE: iteration 2
Mesh Courant Number mean: 0 max: 0
amgSolver:  Solving for Voltage, Initial residual = 0, Final residual = 0, No Iterations 1
BiCGStab:  Solving for Ux, Initial residual = 6.81729e-05, Final residual = 1.02467e-12, No Iterations 1
BiCGStab:  Solving for Uy, Initial residual = 0.000182678, Final residual = 3.23048e-12, No Iterations 1
amgSolver:  Solving for pd, Initial residual = 9.43264e-05, Final residual = 4.72836e-09, No Iterations 7
Updating old interface data for additonal non orthogonal/PISO correctors.
time step continuity errors : sum local = 3.01915e-13, global = -1.42293e-13, cumulative = 2.23641e-11
amgSolver:  Solving for pd, Initial residual = 1.42137e-06, Final residual = 9.6953e-09, No Iterations 3
time step continuity errors : sum local = 6.19108e-13, global = 2.08828e-13, cumulative = 2.25729e-11
Setting up velocity and flux fields for isoAdvector.
Number of isoAdvector surface cells = 0
Restoring velocity and flux fields after isoAdvector.
Liquid phase volume fraction = 1  Min(alpha1) = 1  Max(alpha1) = 1
Number of internal interface faces: 0
Smoothing alpha field 1 times for curvature calculation.
ExecutionTime = 0.03 s  ClockTime = 0 s

Field pd min = 0 (3.33978) max = 174.742 (174.742)
Field U magnitude min = 0 (0.623844) max = 1.22359 (1.22359)
Field alpha1 min = 1 (1) max = 1 (1)
Volume: new = 4 old = 4 change = 0 ratio = 0
Courant Number mean: 0.000359722 max: 0.00359168 velocity magnitude: 1.07765
Interface Courant Number mean: 0 max: 0
Time = 0.0106667

PIMPLE: iteration 1
Mesh Courant Number mean: 0 max: 0
amgSolver:  Solving for Voltage, Initial residual = 0, Final residual = 0, No Iterations 1
BiCGStab:  Solving for Ux, Initial residual = 0.0462712, Final residual = 6.67389e-10, No Iterations 1
BiCGStab:  Solving for Uy, Initial residual = 0.0579083, Final residual = 9.64898e-10, No Iterations 1
amgSolver:  Solving for pd, Initial residual = 0.0284759, Final residual = 6.35887e-09, No Iterations 15
Updating old interface data for additonal non orthogonal/PISO correctors.
time step continuity errors : sum local = 3.99406e-13, global = 1.86202e-13, cumulative = 2.27591e-11
amgSolver:  Solving for pd, Initial residual = 0.000393388, Final residual = 5.09916e-09, No Iterations 11
time step continuity errors : sum local = 3.09066e-13, global = -1.49564e-13, cumulative = 2.26096e-11
Setting up velocity and flux fields for isoAdvector.
Number of isoAdvector surface cells = 0
Restoring velocity and flux fields after isoAdvector.
Liquid phase volume fraction = 1  Min(alpha1) = 1  Max(alpha1) = 1
Number of internal interface faces: 0
Smoothing alpha field 1 times for curvature calculation.
PIMPLE: iteration 2
Mesh Courant Number mean: 0 max: 0
amgSolver:  Solving for Voltage, Initial residual = 0, Final residual = 0, No Iterations 1
BiCGStab:  Solving for Ux, Initial residual = 5.68781e-05, Final residual = 8.59571e-13, No Iterations 1
BiCGStab:  Solving for Uy, Initial residual = 4.33628e-05, Final residual = 7.80115e-13, No Iterations 1
amgSolver:  Solving for pd, Initial residual = 6.62532e-05, Final residual = 5.06152e-09, No Iterations 7
Updating old interface data for additonal non orthogonal/PISO correctors.
time step continuity errors : sum local = 3.07194e-13, global = -1.46398e-13, cumulative = 2.24632e-11
amgSolver:  Solving for pd, Initial residual = 1.26989e-06, Final residual = 9.27827e-09, No Iterations 3
time step continuity errors : sum local = 5.6315e-13, global = 1.91615e-13, cumulative = 2.26548e-11
Setting up velocity and flux fields for isoAdvector.
Number of isoAdvector surface cells = 0
Restoring velocity and flux fields after isoAdvector.
Liquid phase volume fraction = 1  Min(alpha1) = 1  Max(alpha1) = 1
Number of internal interface faces: 0
Smoothing alpha field 1 times for curvature calculation.
ExecutionTime = 0.04 s  ClockTime = 0 s

Field pd min = 0 (3.23429) max = 168.286 (168.286)
Field U magnitude min = 0 (0.615405) max = 1.22774 (1.22774)
Field alpha1 min = 1 (1) max = 1 (1)
Volume: new = 4 old = 4 change = 0 ratio = 0
Courant Number mean: 0.000360732 max: 0.00362274 velocity magnitude: 1.08707
Interface Courant Number mean: 0 max: 0
Time = 0.012

PIMPLE: iteration 1
Mesh Courant Number mean: 0 max: 0
amgSolver:  Solving for Voltage, Initial residual = 0, Final residual = 0, No Iterations 1
BiCGStab:  Solving for Ux, Initial residual = 0.0396932, Final residual = 5.65562e-10, No Iterations 1
BiCGStab:  Solving for Uy, Initial residual = 0.0489282, Final residual = 8.27545e-10, No Iterations 1
amgSolver:  Solving for pd, Initial residual = 0.0239308, Final residual = 6.07887e-09, No Iterations 15
Updating old interface data for additonal non orthogonal/PISO correctors.
time step continuity errors : sum local = 3.64422e-13, global = 1.7201e-13, cumulative = 2.28268e-11
amgSolver:  Solving for pd, Initial residual = 0.000302235, Final residual = 7.66279e-09, No Iterations 10
time step continuity errors : sum local = 4.45509e-13, global = -5.73375e-14, cumulative = 2.27695e-11
Setting up velocity and flux fields for isoAdvector.
Number of isoAdvector surface cells = 0
Restoring velocity and flux fields after isoAdvector.
Liquid phase volume fraction = 1  Min(alpha1) = 1  Max(alpha1) = 1
Number of internal interface faces: 0
Smoothing alpha field 1 times for curvature calculation.
PIMPLE: iteration 2
Mesh Courant Number mean: 0 max: 0
amgSolver:  Solving for Voltage, Initial residual = 0, Final residual = 0, No Iterations 1
BiCGStab:  Solving for Ux, Initial residual = 4.96686e-05, Final residual = 7.30566e-13, No Iterations 1