/*--------------------------------*- C++ -*----------------------------------*\
| =========                 |                                                 |
| \\      /  F ield         | foam-extend: Open Source CFD                    |
|  \\    /   O peration     | Version:     5.0                                |
|   \\  /    A nd           | Web:         http://www.foam-extend.org         |
|    \\/     M anipulation  | For copyright notice see file Copyright         |
\*---------------------------------------------------------------------------*/
FoamFile
{
    version     2.0;
    format      ascii;
    class       dictionary;
    object      fvSchemes;
}
// * * * * * * * * * * * * * * * * * * * * * * * * * * * * * * * * * * * * * //

ddtSchemes
{
    default Euler;
}

gradSchemes
{
    default         Gauss linear;
    grad(pd)        interfaceGauss linear;
    snGradCorr(pd)  interfaceGauss linear;
}

divSchemes
{
    div(phi,U)  Gauss linearUpwindV grad(U);
    div(phi,alpha)  Gauss vanLeer01;
    div(phirb,alpha) Gauss vofCompression;
    div(((rho*nuEff)*dev2(T(grad(U))))) Gauss linear;
    div(phi,k) Gauss upwind;
    div(phi,epsilon) Gauss upwind;
}

laplacianSchemes
{
    default         Gauss linear corrected;
    laplacian(rAU,pd) interfaceGauss linear interfaceCorrected;
}

interpolationSchemes
{
    default         linear;
}

snGradSchemes
{
    default         corrected;
    snGrad(pd)      interfaceCorrected;
}

// ************************************************************************* //
/*--------------------------------*- C++ -*----------------------------------*\
| =========                 |                                                 |
| \\      /  F ield         | foam-extend: Open Source CFD                    |
|  \\    /   O peration     | Version:     5.0                                |
|   \\  /    A nd           | Web:         http://www.foam-extend.org         |
|    \\/     M anipulation  | For copyright notice see file Copyright         |
\*---------------------------------------------------------------------------*/
FoamFile
{
    version     2.0;
    format      ascii;
    class       dictionary;
    object      fvSolution;
}
// * * * * * * * * * * * * * * * * * * * * * * * * * * * * * * * * * * * * * //

solvers
{
    "p|pd|pdFinal|Voltage"
    {
        solver            amgSolver;
        cycle             V-cycle;
//        policy            selectionAMG;
        policy            cluster;
        nPreSweeps        1;
        nPostSweeps       3;
        groupSize         8;
        minCoarseEqns     4;
        nMaxLevels        100;
        scale             on;
        smoother          ILUC0;

        minIter           1;
        maxIter           20;
        tolerance         1e-8;
        relTol            0.0;
    }
    "(U|UFinal)"
    {
        solver            BiCGStab;
        preconditioner    ILU0;

        minIter           1;
        maxIter           500;
        tolerance         1e-8;
        relTol            0.0;
    }
    "k|epsilon"
    {
        solver          BiCGStab;
        preconditioner    ILU0;

        minIter           1;
        maxIter           500;
        tolerance         1e-8;
        relTol            0.0;
    }
}

PISO
{
    cAlpha          1;
}
PIMPLE
{
    nOuterCorrectors    2;
    nCorrectors         2;
    nNonOrthogonalCorrectors 0;
    pdRefCell 0;
    pdRefValue 0;
}

relaxationFactors
{
    equations
    {
        U        1; // 0.8
        UFinal   1;
    }
    fields
    {
        pd       1;
    }
}

isoAdvector
{
    // Note: use full Crank-Nicolson when topo changes are not occuring,
    // otherwise the code resorts to Euler implicit
//    CrankNicolsonCoeff 0.5;

    // Euler implicit
    CrankNicolsonCoeff 1;

    gradAlphaNormal true;

    alphaFluxTolerance 1e-12; // 10*SMALL by default

    // Determines which cells are classified as surface cells
    vof2IsoTol         1e-8; // 1e-8 by default

    clipAlphaTol 1e-6;
    nAlphaBounds 0;
    snapAlpha   false; // true
    extrapolateVelocity yes;
    secondOrderExtrapolation no;
}

// ************************************************************************* //
/*---------------------------------------------------------------------------*\
| =========                 |                                                 |
| \\      /  F ield         | foam-extend: Open Source CFD                    |
|  \\    /   O peration     | Version:     5.0                                |
|   \\  /    A nd           | Web:         http://www.foam-extend.org         |
|    \\/     M anipulation  | For copyright notice see file Copyright         |
\*---------------------------------------------------------------------------*/
Build  : 5.0-73c2a3d539c2
Exec   : lmbFoam
Date   : Jul 10 2023
Time   : 13:30:26
Host   : "ojm40-OMEN"
PID    : 335322
CtrlDict : "/home/ojm40/foam/ojm40-5.0/work/liquidMetalBattery/run/hartmannLMB/system/controlDict"
Case   : /home/ojm40/foam/ojm40-5.0/work/liquidMetalBattery/run/hartmannLMB
nProcs : 1
sigFpe : Enabling floating point exception trapping (FOAM_SIGFPE).
allowSystemOperations : Disallowing user-supplied system call operations

// * * * * * * * * * * * * * * * * * * * * * * * * * * * * * * * * * * * * * //
Create time

Create dynamic mesh for time = 0

--> FOAM Warning : 
    From function void* Foam::dlOpen(const Foam::fileName&, bool)
    in file POSIX.C at line 1204
    dlopen error : libmesquiteMotionSolver.so: cannot open shared object file: No such file or directory
--> FOAM Warning : 
    From function bool Foam::dlLibraryTable::open(const Foam::fileName&, bool)
    in file db/dynamicLibrary/dlLibraryTable/dlLibraryTable.C at line 97
    could not load "libmesquiteMotionSolver.so"
--> FOAM Warning : 
    From function dynamicFvMesh::New(const IOobject& io)
    in file dynamicFvMesh/newDynamicFvMesh.C at line 46
    Loading of dynamic mesh library libmesquiteMotionSolver.so unsuccesful. Some dynamic mesh  methods may not be  available
Selecting dynamicFvMesh staticFvMesh

PIMPLE: no residual control data found. Calculations will employ 2 corrector loops


Reading g
Reading field pd

Reading field alpha1

Reading field U

Reading/calculating face flux field phi

Reading transportProperties

Selecting incompressible transport model Newtonian
Selecting incompressible transport model Newtonian
Calculating field g.h

Reading field p

Selecting turbulence model type RASModel
Selecting RAS turbulence model kEpsilon
kEpsilonCoeffs
{
    Cmu             0.09;
    C1              1.44;
    C2              1.92;
    sigmaEps        1.3;
}

Number of internal interface faces: 0
Smoothing alpha field 1 times for curvature calculation.
amgSolver:  Solving for pd, Initial residual = 1, Final residual = 1.87628e-05, No Iterations 20
Reading field Electric Potential

Courant Number mean: 0.000337426 max: 0.00333333 velocity magnitude: 1

Starting time loop

Creating minMaxField for field pd
Creating minMaxField for field U
Creating minMaxField for field alpha1
Volume: new = 4 old = 4 change = 0 ratio = 0
Courant Number mean: 0.000337426 max: 0.00333333 velocity magnitude: 1
Interface Courant Number mean: 0 max: 0
Time = 0.000333333

PIMPLE: iteration 1
Mesh Courant Number mean: 0 max: 0
amgSolver:  Solving for Voltage, Initial residual = 0, Final residual = 0, No Iterations 1
BiCGStab:  Solving for Ux, Initial residual = 1, Final residual = 2.55142e-13, No Iterations 2
BiCGStab:  Solving for Uy, Initial residual = 1, Final residual = 1.50059e-13, No Iterations 2
amgSolver:  Solving for pd, Initial residual = 0.000719328, Final residual = 7.34222e-09, No Iterations 16
Updating old interface data for additonal non orthogonal/PISO correctors.
time step continuity errors : sum local = 1.9246e-11, global = -1.02406e-14, cumulative = -1.02406e-14
amgSolver:  Solving for pd, Initial residual = 7.95217e-05, Final residual = 8.07534e-09, No Iterations 12
time step continuity errors : sum local = 2.14729e-11, global = 1.79455e-14, cumulative = 7.70495e-15
Setting up velocity and flux fields for isoAdvector.
Number of isoAdvector surface cells = 0
Restoring velocity and flux fields after isoAdvector.
Liquid phase volume fraction = 1  Min(alpha1) = 1  Max(alpha1) = 1
Number of internal interface faces: 0
Smoothing alpha field 1 times for curvature calculation.
PIMPLE: iteration 2
Mesh Courant Number mean: 0 max: 0
amgSolver:  Solving for Voltage, Initial residual = 0, Final residual = 0, No Iterations 1
BiCGStab:  Solving for Ux, Initial residual = 0.00525015, Final residual = 2.12059e-09, No Iterations 1
BiCGStab:  Solving for Uy, Initial residual = 0.00317244, Final residual = 4.63664e-09, No Iterations 1
amgSolver:  Solving for pd, Initial residual = 8.45857e-06, Final residual = 7.48127e-09, No Iterations 7
Updating old interface data for additonal non orthogonal/PISO correctors.
time step continuity errors : sum local = 1.98328e-11, global = -5.47418e-14, cumulative = -4.70369e-14
amgSolver:  Solving for pd, Initial residual = 9.14331e-07, Final residual = 7.91272e-09, No Iterations 3
time step continuity errors : sum local = 2.09851e-11, global = 5.69791e-13, cumulative = 5.22754e-13
Setting up velocity and flux fields for isoAdvector.
Number of isoAdvector surface cells = 0
Restoring velocity and flux fields after isoAdvector.
Liquid phase volume fraction = 1  Min(alpha1) = 1  Max(alpha1) = 1
Number of internal interface faces: 0
Smoothing alpha field 1 times for curvature calculation.
ExecutionTime = 0.06 s  ClockTime = 0 s

Field pd min = 0 (303.366) max = 60433.4 (60433.4)
Field U magnitude min = 0 (0.453771) max = 1.04287 (1.04287)
Field alpha1 min = 1 (1) max = 1 (1)
Volume: new = 4 old = 4 change = 0 ratio = 0
Courant Number mean: 0.000338815 max: 0.00336961 velocity magnitude: 1.01906
Interface Courant Number mean: 0 max: 0
Time = 0.000666667

PIMPLE: iteration 1
Mesh Courant Number mean: 0 max: 0
amgSolver:  Solving for Voltage, Initial residual = 0, Final residual = 0, No Iterations 1
BiCGStab:  Solving for Ux, Initial residual = 0.971293, Final residual = 2.35072e-13, No Iterations 2
BiCGStab:  Solving for Uy, Initial residual = 0.328714, Final residual = 8.72178e-13, No Iterations 2
amgSolver:  Solving for pd, Initial residual = 0.00636756, Final residual = 1.12568e-07, No Iterations 20
Updating old interface data for additonal non orthogonal/PISO correctors.
time step continuity errors : sum local = 2.97514e-10, global = 1.48298e-13, cumulative = 6.71051e-13
amgSolver:  Solving for pd, Initial residual = 0.00515663, Final residual = 9.03951e-08, No Iterations 20
time step continuity errors : sum local = 6.45729e-11, global = -3.2354e-14, cumulative = 6.38697e-13
Setting up velocity and flux fields for isoAdvector.
Number of isoAdvector surface cells = 0
Restoring velocity and flux fields after isoAdvector.
Liquid phase volume fraction = 1  Min(alpha1) = 1  Max(alpha1) = 1
Number of internal interface faces: 0
Smoothing alpha field 1 times for curvature calculation.
PIMPLE: iteration 2
Mesh Courant Number mean: 0 max: 0
amgSolver:  Solving for Voltage, Initial residual = 0, Final residual = 0, No Iterations 1
BiCGStab:  Solving for Ux, Initial residual = 0.0225992, Final residual = 3.58358e-14, No Iterations 2
BiCGStab:  Solving for Uy, Initial residual = 0.0356987, Final residual = 6.98102e-14, No Iterations 2
amgSolver:  Solving for pd, Initial residual = 0.00488307, Final residual = 8.39292e-09, No Iterations 20
Updating old interface data for additonal non orthogonal/PISO correctors.
time step continuity errors : sum local = 3.1054e-13, global = -1.53547e-15, cumulative = 6.37162e-13
amgSolver:  Solving for pd, Initial residual = 0.000682894, Final residual = 8.62999e-09, No Iterations 16
time step continuity errors : sum local = 3.38663e-13, global = 2.07139e-15, cumulative = 6.39233e-13
Setting up velocity and flux fields for isoAdvector.
Number of isoAdvector surface cells = 0
Restoring velocity and flux fields after isoAdvector.
Liquid phase volume fraction = 1  Min(alpha1) = 1  Max(alpha1) = 1
Number of internal interface faces: 0
Smoothing alpha field 1 times for curvature calculation.
ExecutionTime = 0.09 s  ClockTime = 0 s

Field pd min = 0 (2.8273) max = 721.816 (721.816)
Field U magnitude min = 0 (0.498134) max = 1.16068 (1.16068)
Field alpha1 min = 1 (1) max = 1 (1)
Volume: new = 4 old = 4 change = 0 ratio = 0
Courant Number mean: 0.000339961 max: 0.0033999 velocity magnitude: 1.03127
Interface Courant Number mean: 0 max: 0
Time = 0.001

PIMPLE: iteration 1
Mesh Courant Number mean: 0 max: 0
amgSolver:  Solving for Voltage, Initial residual = 0, Final residual = 0, No Iterations 1
BiCGStab:  Solving for Ux, Initial residual = 0.166574, Final residual = 3.75599e-13, No Iterations 2
BiCGStab:  Solving for Uy, Initial residual = 0.18272, Final residual = 5.09409e-13, No Iterations 2
amgSolver:  Solving for pd, Initial residual = 0.10791, Final residual = 3.77723e-08, No Iterations 20
Updating old interface data for additonal non orthogonal/PISO correctors.
time step continuity errors : sum local = 1.38385e-12, global = 5.29155e-16, cumulative = 6.39762e-13
amgSolver:  Solving for pd, Initial residual = 0.0161088, Final residual = 8.84134e-09, No Iterations 20
time step continuity errors : sum local = 2.66802e-13, global = -6.95843e-16, cumulative = 6.39067e-13
Setting up velocity and flux fields for isoAdvector.
Number of isoAdvector surface cells = 0
Restoring velocity and flux fields after isoAdvector.
Liquid phase volume fraction = 1  Min(alpha1) = 1  Max(alpha1) = 1
Number of internal interface faces: 0
Smoothing alpha field 1 times for curvature calculation.
PIMPLE: iteration 2
Mesh Courant Number mean: 0 max: 0
amgSolver:  Solving for Voltage, Initial residual = 0, Final residual = 0, No Iterations 1
BiCGStab:  Solving for Ux, Initial residual = 0.000340605, Final residual = 3.35509e-10, No Iterations 1
BiCGStab:  Solving for Uy, Initial residual = 0.00137321, Final residual = 1.63721e-09, No Iterations 1
amgSolver:  Solving for pd, Initial residual = 0.00174652, Final residual = 8.40799e-09, No Iterations 12
Updating old interface data for additonal non orthogonal/PISO correctors.
time step continuity errors : sum local = 2.63923e-13, global = -2.02908e-15, cumulative = 6.37038e-13
amgSolver:  Solving for pd, Initial residual = 0.000203968, Final residual = 9.25851e-09, No Iterations 7
time step continuity errors : sum local = 2.90842e-13, global = 4.30654e-15, cumulative = 6.41344e-13
Setting up velocity and flux fields for isoAdvector.
Number of isoAdvector surface cells = 0
Restoring velocity and flux fields after isoAdvector.
Liquid phase volume fraction = 1  Min(alpha1) = 1  Max(alpha1) = 1
Number of internal interface faces: 0
Smoothing alpha field 1 times for curvature calculation.
ExecutionTime = 0.11 s  ClockTime = 0 s

Field pd min = 0 (2.42921) max = 542.974 (542.974)
Field U magnitude min = 0 (0.490126) max = 1.19178 (1.19178)
Field alpha1 min = 1 (1) max = 1 (1)
Volume: new = 4 old = 4 change = 0 ratio = 0
Courant Number mean: 0.000340925 max: 0.00342576 velocity magnitude: 1.04248
Interface Courant Number mean: 0 max: 0
Time = 0.00133333

PIMPLE: iteration 1
Mesh Courant Number mean: 0 max: 0
amgSolver:  Solving for Voltage, Initial residual = 0, Final residual = 0, No Iterations 1
BiCGStab:  Solving for Ux, Initial residual = 0.105607, Final residual = 2.15721e-13, No Iterations 2
BiCGStab:  Solving for Uy, Initial residual = 0.120338, Final residual = 3.56837e-13, No Iterations 2
amgSolver:  Solving for pd, Initial residual = 0.0584879, Final residual = 2.09182e-08, No Iterations 20
Updating old interface data for additonal non orthogonal/PISO correctors.
time step continuity errors : sum local = 6.35032e-13, global = 9.90937e-16, cumulative = 6.42335e-13
amgSolver:  Solving for pd, Initial residual = 0.00678241, Final residual = 7.2508e-09, No Iterations 19
time step continuity errors : sum local = 1.88928e-13, global = -1.58638e-15, cumulative = 6.40749e-13
Setting up velocity and flux fields for isoAdvector.
Number of isoAdvector surface cells = 0
Restoring velocity and flux fields after isoAdvector.
Liquid phase volume fraction = 1  Min(alpha1) = 1  Max(alpha1) = 1
Number of internal interface faces: 0
Smoothing alpha field 1 times for curvature calculation.
PIMPLE: iteration 2
Mesh Courant Number mean: 0 max: 0
amgSolver:  Solving for Voltage, Initial residual = 0, Final residual = 0, No Iterations 1
BiCGStab:  Solving for Ux, Initial residual = 0.000141978, Final residual = 1.86864e-10, No Iterations 1
BiCGStab:  Solving for Uy, Initial residual = 0.000250404, Final residual = 2.63031e-10, No Iterations 1
amgSolver:  Solving for pd, Initial residual = 0.000891337, Final residual = 8.66868e-09, No Iterations 10
Updating old interface data for additonal non orthogonal/PISO correctors.
time step continuity errors : sum local = 2.32831e-13, global = -2.6351e-15, cumulative = 6.38114e-13
amgSolver:  Solving for pd, Initial residual = 9.21287e-05, Final residual = 8.1435e-09, No Iterations 5
time step continuity errors : sum local = 2.18824e-13, global = 5.34589e-15, cumulative = 6.43459e-13
Setting up velocity and flux fields for isoAdvector.
Number of isoAdvector surface cells = 0
Restoring velocity and flux fields after isoAdvector.
Liquid phase volume fraction = 1  Min(alpha1) = 1  Max(alpha1) = 1
Number of internal interface faces: 0
Smoothing alpha field 1 times for curvature calculation.
ExecutionTime = 0.14 s  ClockTime = 0 s

Field pd min = 0 (2.12954) max = 465.378 (465.378)
Field U magnitude min = 0 (0.470882) max = 1.20197 (1.20197)
Field alpha1 min = 1 (1) max = 1 (1)
Volume: new = 4 old = 4 change = 0 ratio = 0
Courant Number mean: 0.000341754 max: 0.00344828 velocity magnitude: 1.05309
Interface Courant Number mean: 0 max: 0
Time = 0.00166667

PIMPLE: iteration 1
Mesh Courant Number mean: 0 max: 0
amgSolver:  Solving for Voltage, Initial residual = 0, Final residual = 0, No Iterations 1
BiCGStab:  Solving for Ux, Initial residual = 0.0763515, Final residual = 1.38911e-13, No Iterations 2
BiCGStab:  Solving for Uy, Initial residual = 0.0865152, Final residual = 2.69022e-13, No Iterations 2
amgSolver:  Solving for pd, Initial residual = 0.0408384, Final residual = 1.59441e-08, No Iterations 20
Updating old interface data for additonal non orthogonal/PISO correctors.
time step continuity errors : sum local = 4.1789e-13, global = 1.24571e-15, cumulative = 6.44705e-13
amgSolver:  Solving for pd, Initial residual = 0.00340402, Final residual = 7.92208e-09, No Iterations 18
time step continuity errors : sum local = 1.82601e-13, global = -1.95674e-15, cumulative = 6.42748e-13
Setting up velocity and flux fields for isoAdvector.
Number of isoAdvector surface cells = 0
Restoring velocity and flux fields after isoAdvector.
Liquid phase volume fraction = 1  Min(alpha1) = 1  Max(alpha1) = 1
Number of internal interface faces: 0
Smoothing alpha field 1 times for curvature calculation.
PIMPLE: iteration 2
Mesh Courant Number mean: 0 max: 0
amgSolver:  Solving for Voltage, Initial residual = 0, Final residual = 0, No Iterations 1
BiCGStab:  Solving for Ux, Initial residual = 7.74758e-05, Final residual = 1.20716e-10, No Iterations 1
BiCGStab:  Solving for Uy, Initial residual = 0.000206161, Final residual = 2.59994e-10, No Iterations 1
amgSolver:  Solving for pd, Initial residual = 0.000512331, Final residual = 7.45845e-09, No Iterations 9
Updating old interface data for additonal non orthogonal/PISO correctors.
time step continuity errors : sum local = 1.7632e-13, global = -3.32155e-15, cumulative = 6.39427e-13
amgSolver:  Solving for pd, Initial residual = 4.64569e-05, Final residual = 6.38816e-09, No Iterations 4
time step continuity errors : sum local = 1.51065e-13, global = 4.84109e-15, cumulative = 6.44268e-13
Setting up velocity and flux fields for isoAdvector.
Number of isoAdvector surface cells = 0
Restoring velocity and flux fields after isoAdvector.
Liquid phase volume fraction = 1  Min(alpha1) = 1  Max(alpha1) = 1
Number of internal interface faces: 0
Smoothing alpha field 1 times for curvature calculation.
ExecutionTime = 0.16 s  ClockTime = 0 s

Field pd min = 0 (1.90073) max = 412.205 (412.205)
Field U magnitude min = 0 (0.421779) max = 1.2048 (1.2048)
Field alpha1 min = 1 (1) max = 1 (1)
Volume: new = 4 old = 4 change = 0 ratio = 0
Courant Number mean: 0.000342478 max: 0.00346824 velocity magnitude: 1.06188
Interface Courant Number mean: 0 max: 0
Time = 0.002

PIMPLE: iteration 1
Mesh Courant Number mean: 0 max: 0
amgSolver:  Solving for Voltage, Initial residual = 0, Final residual = 0, No Iterations 1
BiCGStab:  Solving for Ux, Initial residual = 0.0589533, Final residual = 1.00576e-13, No Iterations 2
BiCGStab:  Solving for Uy, Initial residual = 0.0659193, Final residual = 2.11936e-13, No Iterations 2
amgSolver:  Solving for pd, Initial residual = 0.0320048, Final residual = 1.32996e-08, No Iterations 20
Updating old interface data for additonal non orthogonal/PISO correctors.
time step continuity errors : sum local = 3.08304e-13, global = 1.41018e-15, cumulative = 6.45678e-13
amgSolver:  Solving for pd, Initial residual = 0.00199484, Final residual = 9.23782e-09, No Iterations 17
time step continuity errors : sum local = 1.91881e-13, global = -2.16437e-15, cumulative = 6.43514e-13
Setting up velocity and flux fields for isoAdvector.
Number of isoAdvector surface cells = 0
Restoring velocity and flux fields after isoAdvector.
Liquid phase volume fraction = 1  Min(alpha1) = 1  Max(alpha1) = 1
Number of internal interface faces: 0
Smoothing alpha field 1 times for curvature calculation.
PIMPLE: iteration 2
Mesh Courant Number mean: 0 max: 0
amgSolver:  Solving for Voltage, Initial residual = 0, Final residual = 0, No Iterations 1
BiCGStab:  Solving for Ux, Initial residual = 4.89803e-05, Final residual = 8.73986e-11, No Iterations 1
BiCGStab:  Solving for Uy, Initial residual = 0.000138208, Final residual = 1.65575e-10, No Iterations 1
amgSolver:  Solving for pd, Initial residual = 0.000346361, Final residual = 7.3024e-09, No Iterations 8
Updating old interface data for additonal non orthogonal/PISO correctors.
time step continuity errors : sum local = 1.54966e-13, global = -4.08232e-15, cumulative = 6.39431e-13
amgSolver:  Solving for pd, Initial residual = 2.60103e-05, Final residual = 4.84881e-09, No Iterations 4
time step continuity errors : sum local = 1.02922e-13, global = 4.7466e-15, cumulative = 6.44178e-13
Setting up velocity and flux fields for isoAdvector.
Number of isoAdvector surface cells = 0
Restoring velocity and flux fields after isoAdvector.
Liquid phase volume fraction = 1  Min(alpha1) = 1  Max(alpha1) = 1
Number of internal interface faces: 0
Smoothing alpha field 1 times for curvature calculation.
ExecutionTime = 0.18 s  ClockTime = 0 s

Field pd min = 0 (1.72336) max = 372.546 (372.546)
Field U magnitude min = 0 (0.378714) max = 1.20423 (1.20423)
Field alpha1 min = 1 (1) max = 1 (1)
Volume: new = 4 old = 4 change = 0 ratio = 0
Courant Number mean: 0.000343119 max: 0.00348623 velocity magnitude: 1.06892
Interface Courant Number mean: 0 max: 0
Time = 0.00233333

PIMPLE: iteration 1
Mesh Courant Number mean: 0 max: 0
amgSolver:  Solving for Voltage, Initial residual = 0, Final residual = 0, No Iterations 1
BiCGStab:  Solving for Ux, Initial residual = 0.047459, Final residual = 7.93083e-14, No Iterations 2
BiCGStab:  Solving for Uy, Initial residual = 0.0524583, Final residual = 1.72504e-13, No Iterations 2
amgSolver:  Solving for pd, Initial residual = 0.0250978, Final residual = 1.15496e-08, No Iterations 20
Updating old interface data for additonal non orthogonal/PISO correctors.
time step continuity errors : sum local = 2.411e-13, global = 1.53535e-15, cumulative = 6.45713e-13
amgSolver:  Solving for pd, Initial residual = 0.00136738, Final residual = 8.07346e-09, No Iterations 17
time step continuity errors : sum local = 1.5331e-13, global = -2.30337e-15, cumulative = 6.4341e-13
Setting up velocity and flux fields for isoAdvector.
Number of isoAdvector surface cells = 0
Restoring velocity and flux fields after isoAdvector.
Liquid phase volume fraction = 1  Min(alpha1) = 1  Max(alpha1) = 1
Number of internal interface faces: 0
Smoothing alpha field 1 times for curvature calculation.
PIMPLE: iteration 2
Mesh Courant Number mean: 0 max: 0
amgSolver:  Solving for Voltage, Initial residual = 0, Final residual = 0, No Iterations 1
BiCGStab:  Solving for Ux, Initial residual = 3.36621e-05, Final residual = 6.53728e-11, No Iterations 1
BiCGStab:  Solving for Uy, Initial residual = 0.000108313, Final residual = 1.36848e-10, No Iterations 1
amgSolver:  Solving for pd, Initial residual = 0.000259932, Final residual = 8.11971e-09, No Iterations 7
Updating old interface data for additonal non orthogonal/PISO correctors.
time step continuity errors : sum local = 1.5703e-13, global = -4.50529e-15, cumulative = 6.38905e-13
amgSolver:  Solving for pd, Initial residual = 1.60518e-05, Final residual = 4.63929e-09, No Iterations 4
time step continuity errors : sum local = 8.97374e-14, global = 4.78344e-15, cumulative = 6.43688e-13
Setting up velocity and flux fields for isoAdvector.
Number of isoAdvector surface cells = 0
Restoring velocity and flux fields after isoAdvector.
Liquid phase volume fraction = 1  Min(alpha1) = 1  Max(alpha1) = 1
Number of internal interface faces: 0
Smoothing alpha field 1 times for curvature calculation.
ExecutionTime = 0.2 s  ClockTime = 0 s

Field pd min = 0 (1.58367) max = 341.883 (341.883)
Field U magnitude min = 0 (0.346457) max = 1.2017 (1.2017)
Field alpha1 min = 1 (1) max = 1 (1)
Volume: new = 4 old = 4 change = 0 ratio = 0
Courant Number mean: 0.000343696 max: 0.00350266 velocity magnitude: 1.07435
Interface Courant Number mean: 0 max: 0
Time = 0.00266667

PIMPLE: iteration 1
Mesh Courant Number mean: 0 max: 0
amgSolver:  Solving for Voltage, Initial residual = 0, Final residual = 0, No Iterations 1
BiCGStab:  Solving for Ux, Initial residual = 0.0394227, Final residual = 6.73554e-14, No Iterations 2
BiCGStab:  Solving for Uy, Initial residual = 0.0432638, Final residual = 1.44154e-13, No Iterations 2
amgSolver:  Solving for pd, Initial residual = 0.0214609, Final residual = 1.02708e-08, No Iterations 20
Updating old interface data for additonal non orthogonal/PISO correctors.
time step continuity errors : sum local = 1.95852e-13, global = 1.64186e-15, cumulative = 6.4533e-13
amgSolver:  Solving for pd, Initial residual = 0.00102359, Final residual = 9.89892e-09, No Iterations 16
time step continuity errors : sum local = 1.73875e-13, global = -2.46134e-15, cumulative = 6.42869e-13
Setting up velocity and flux fields for isoAdvector.
Number of isoAdvector surface cells = 0
Restoring velocity and flux fields after isoAdvector.
Liquid phase volume fraction = 1  Min(alpha1) = 1  Max(alpha1) = 1
Number of internal interface faces: 0
Smoothing alpha field 1 times for curvature calculation.
PIMPLE: iteration 2
Mesh Courant Number mean: 0 max: 0
amgSolver:  Solving for Voltage, Initial residual = 0, Final residual = 0, No Iterations 1
BiCGStab:  Solving for Ux, Initial residual = 2.5667e-05, Final residual = 4.9992e-11, No Iterations 1
BiCGStab:  Solving for Uy, Initial residual = 4.97132e-05, Final residual = 5.71953e-11, No Iterations 1
amgSolver:  Solving for pd, Initial residual = 0.000195907, Final residual = 9.54615e-09, No Iterations 6
Updating old interface data for additonal non orthogonal/PISO correctors.
time step continuity errors : sum local = 1.70335e-13, global = -4.99779e-15, cumulative = 6.37871e-13
amgSolver:  Solving for pd, Initial residual = 1.09083e-05, Final residual = 4.08339e-09, No Iterations 4
time step continuity errors : sum local = 7.28721e-14, global = 4.54442e-15, cumulative = 6.42415e-13
Setting up velocity and flux fields for isoAdvector.
Number of isoAdvector surface cells = 0
Restoring velocity and flux fields after isoAdvector.
Liquid phase volume fraction = 1  Min(alpha1) = 1  Max(alpha1) = 1
Number of internal interface faces: 0
Smoothing alpha field 1 times for curvature calculation.
ExecutionTime = 0.23 s  ClockTime = 0 s

Field pd min = 0 (1.47191) max = 317.607 (317.607)
Field U magnitude min = 0 (0.321629) max = 1.20107 (1.20107)
Field alpha1 min = 1 (1) max = 1 (1)
Volume: new = 4 old = 4 change = 0 ratio = 0
Courant Number mean: 0.00034422 max: 0.00351784 velocity magnitude: 1.07835
Interface Courant Number mean: 0 max: 0
Time = 0.003

PIMPLE: iteration 1
Mesh Courant Number mean: 0 max: 0
amgSolver:  Solving for Voltage, Initial residual = 0, Final residual = 0, No Iterations 1
BiCGStab:  Solving for Ux, Initial residual = 0.0337622, Final residual = 5.98135e-14, No Iterations 2
BiCGStab:  Solving for Uy, Initial residual = 0.0366324, Final residual = 1.2286e-13, No Iterations 2
amgSolver:  Solving for pd, Initial residual = 0.01864, Final residual = 9.28077e-09, No Iterations 20
Updating old interface data for additonal non orthogonal/PISO correctors.
time step continuity errors : sum local = 1.63536e-13, global = 1.73805e-15, cumulative = 6.44153e-13
amgSolver:  Solving for pd, Initial residual = 0.00076627, Final residual = 8.97898e-09, No Iterations 16
time step continuity errors : sum local = 1.47218e-13, global = -2.56952e-15, cumulative = 6.41584e-13
Setting up velocity and flux fields for isoAdvector.
Number of isoAdvector surface cells = 0
Restoring velocity and flux fields after isoAdvector.
Liquid phase volume fraction = 1  Min(alpha1) = 1  Max(alpha1) = 1
Number of internal interface faces: 0
Smoothing alpha field 1 times for curvature calculation.
PIMPLE: iteration 2
Mesh Courant Number mean: 0 max: 0
amgSolver:  Solving for Voltage, Initial residual = 0, Final residual = 0, No Iterations 1
BiCGStab:  Solving for Ux, Initial residual = 2.01652e-05, Final residual = 3.95716e-11, No Iterations 1