/*--------------------------------*- C++ -*----------------------------------*\
| =========                 |                                                 |
| \\      /  F ield         | foam-extend: Open Source CFD                    |
|  \\    /   O peration     | Version:     5.0                                |
|   \\  /    A nd           | Web:         http://www.foam-extend.org         |
|    \\/     M anipulation  |                                                 |
\*---------------------------------------------------------------------------*/
FoamFile
{
    version     2.0;
    format      ascii;
    class       polyBoundaryMesh;
    location    "constant/polyMesh";
    object      boundary;
}
// * * * * * * * * * * * * * * * * * * * * * * * * * * * * * * * * * * * * * //

3
(
    liquidToSteelInterface
    {
        type            regionCouple;
<<<<<<< HEAD
        nFaces          6900;
        startFace       108660;
=======
        nFaces          10325;
        startFace       188280;
>>>>>>> tmp
        shadowRegion    solid;
        shadowPatch     steelInterface;
        zone            liquidToSteelInterfaceZone;
        attached        off;
        master          on;
        isWall          on;
        bridgeOverlap   off;
    }
    liquidToLithiumInterface
    {
        type            regionCouple;
<<<<<<< HEAD
        nFaces          1804;
        startFace       115560;
=======
        nFaces          2889;
        startFace       198605;
>>>>>>> tmp
        shadowRegion    solid;
        shadowPatch     lithiumInterface;
        zone            liquidToLithiumInterfaceZone;
        attached        off;
        master          on;
        isWall          on;
        bridgeOverlap   off;
    }
    topSurface
    {
        type            patch;
<<<<<<< HEAD
        nFaces          416;
        startFace       117364;
=======
        nFaces          496;
        startFace       201494;
>>>>>>> tmp
    }
)


// ************************************************************************* //
