/*--------------------------------*- C++ -*----------------------------------*\
| =========                 |                                                 |
| \\      /  F ield         | foam-extend: Open Source CFD                    |
|  \\    /   O peration     | Version:     5.0                                |
|   \\  /    A nd           | Web:         http://www.foam-extend.org         |
|    \\/     M anipulation  |                                                 |
\*---------------------------------------------------------------------------*/
FoamFile
{
    version     2.0;
    format      ascii;
    class       polyBoundaryMesh;
    location    "constant/polyMesh";
    object      boundary;
}
// * * * * * * * * * * * * * * * * * * * * * * * * * * * * * * * * * * * * * //

5
(
    outsideSurface
    {
        type            patch;
        nFaces          14080;
        startFace       177275;
    }
    lithiumInterface
    {
        type            regionCouple;
        nFaces          2889;
        startFace       191355;
        shadowRegion    region0;
        shadowPatch     liquidToLithiumInterface;
        zone            lithiumInterfaceZone;
        attached        off;
        master          off;
        isWall          off;
        bridgeOverlap   off;
    }
    steelInterface
    {
        type            regionCouple;
        nFaces          10656;
        startFace       194244;
        shadowRegion    region0;
        shadowPatch     liquidToSteelInterface;
        zone            steelInterfaceZone;
        attached        off;
        master          off;
        isWall          off;
        bridgeOverlap   off;
    }
    topLithium
    {
        type            patch;
        nFaces          729;
        startFace       204900;
    }
    topSurface
    {
        type            patch;
        nFaces          640;
        startFace       205629;
    }
)


// ************************************************************************* //
