/*--------------------------------*- C++ -*----------------------------------*\
| =========                 |                                                 |
| \\      /  F ield         | foam-extend: Open Source CFD                    |
|  \\    /   O peration     | Version:     5.0                                |
|   \\  /    A nd           | Web:         http://www.foam-extend.org         |
|    \\/     M anipulation  |                                                 |
\*---------------------------------------------------------------------------*/
FoamFile
{
    version     2.0;
    format      ascii;
    class       polyBoundaryMesh;
    location    "constant/polyMesh";
    object      boundary;
}
// * * * * * * * * * * * * * * * * * * * * * * * * * * * * * * * * * * * * * //

5
(
    outsideSurface
    {
        type            patch;
        nFaces          10240;
        startFace       122784;
    }
    lithiumInterface
    {
        type            regionCouple;
        nFaces          2112;
        startFace       133024;
        shadowRegion    region0;
        shadowPatch     liquidToLithiumInterface;
        zone            lithiumInterfaceZone;
        attached        off;
        master          off;
        isWall          off;
        bridgeOverlap   off;
    }
    steelInterface
    {
        type            regionCouple;
        nFaces          7424;
        startFace       135136;
        shadowRegion    region0;
        shadowPatch     liquidToSteelInterface;
        zone            steelInterfaceZone;
        attached        off;
        master          off;
        isWall          off;
        bridgeOverlap   off;
    }
    topLithium
    {
        type            patch;
        nFaces          576;
        startFace       142560;
    }
    topSurface
    {
        type            patch;
        nFaces          576;
        startFace       143136;
    }
)


// ************************************************************************* //
